10621
     RDKit          3D

 77 81  0  0  1  0  0  0  0  0999 V2000
    3.4756    0.0511   -0.0834 O   0  0  0  0  0  0  0  0  0  0  0  0
    1.8137   -1.9432    0.8519 O   0  0  0  0  0  0  0  0  0  0  0  0
    1.0094   -4.1175    1.3582 O   0  0  0  0  0  0  0  0  0  0  0  0
    5.1046   -2.8194   -1.6709 O   0  0  0  0  0  0  0  0  0  0  0  0
    3.5980    2.3495   -0.4662 O   0  0  0  0  0  0  0  0  0  0  0  0
    6.8905   -0.6248   -2.2625 O   0  0  0  0  0  0  0  0  0  0  0  0
    5.3711    1.8741   -2.6199 O   0  0  0  0  0  0  0  0  0  0  0  0
   -0.1104   -2.9867    3.7514 O   0  0  0  0  0  0  0  0  0  0  0  0
   -2.2108   -1.7317    2.4255 O   0  0  0  0  0  0  0  0  0  0  0  0
   -2.3967   -3.4208    0.1324 O   0  0  0  0  0  0  0  0  0  0  0  0
   -1.1128    1.7749   -0.5943 O   0  0  0  0  0  0  0  0  0  0  0  0
    0.9400    4.7043    2.6926 O   0  0  0  0  0  0  0  0  0  0  0  0
   -1.6411    4.4151    2.5010 O   0  0  0  0  0  0  0  0  0  0  0  0
   -6.4956   -0.7086   -2.6300 O   0  0  0  0  0  0  0  0  0  0  0  0
   -6.2236   -1.1964    0.0931 O   0  0  0  0  0  0  0  0  0  0  0  0
    3.5872   -1.2695   -0.6167 C   0  0  1  0  0  0  0  0  0  0  0  0
    5.0268   -1.5315   -1.0655 C   0  0  2  0  0  0  0  0  0  0  0  0
    5.4834   -0.4727   -2.0692 C   0  0  1  0  0  0  0  0  0  0  0  0
    5.1894    0.9377   -1.5580 C   0  0  2  0  0  0  0  0  0  0  0  0
    0.1581   -2.1987    2.5905 C   0  0  1  0  0  0  0  0  0  0  0  0
    1.3505   -2.8244    1.8692 C   0  0  2  0  0  0  0  0  0  0  0  0
   -1.0738   -2.1683    1.6844 C   0  0  1  0  0  0  0  0  0  0  0  0
   -1.3561   -3.5520    1.0979 C   0  0  2  0  0  0  0  0  0  0  0  0
    3.7511    1.0581   -1.0544 C   0  0  1  0  0  0  0  0  0  0  0  0
    3.1489   -2.2438    0.4721 C   0  0  0  0  0  0  0  0  0  0  0  0
   -0.0885   -4.1148    0.4401 C   0  0  2  0  0  0  0  0  0  0  0  0
   -0.2793   -5.5538   -0.0311 C   0  0  0  0  0  0  0  0  0  0  0  0
    2.3640    2.6478    0.0435 C   0  0  0  0  0  0  0  0  0  0  0  0
    1.2218    2.0785   -0.5203 C   0  0  0  0  0  0  0  0  0  0  0  0
   -0.0360    2.3737    0.0071 C   0  0  0  0  0  0  0  0  0  0  0  0
    2.2505    3.5198    1.1268 C   0  0  0  0  0  0  0  0  0  0  0  0
   -2.2509    1.6681    0.2753 C   0  0  1  0  0  0  0  0  0  0  0  0
   -0.1487    3.2646    1.0785 C   0  0  0  0  0  0  0  0  0  0  0  0
   -2.6549    3.0370    0.8192 C   0  0  0  0  0  0  0  0  0  0  0  0
    0.9939    3.8347    1.6455 C   0  0  0  0  0  0  0  0  0  0  0  0
   -1.4924    3.6298    1.5723 C   0  0  0  0  0  0  0  0  0  0  0  0
   -3.3862    1.0311   -0.4981 C   0  0  0  0  0  0  0  0  0  0  0  0
   -4.2956    0.1998    0.1558 C   0  0  0  0  0  0  0  0  0  0  0  0
   -3.5226    1.2758   -1.8645 C   0  0  0  0  0  0  0  0  0  0  0  0
   -5.3418   -0.3866   -0.5566 C   0  0  0  0  0  0  0  0  0  0  0  0
   -4.5686    0.6892   -2.5771 C   0  0  0  0  0  0  0  0  0  0  0  0
   -5.4782   -0.1420   -1.9231 C   0  0  0  0  0  0  0  0  0  0  0  0
   -6.5637   -0.4075   -4.0224 C   0  0  0  0  0  0  0  0  0  0  0  0
    5.1465   -3.5134   -0.9661 H   0  0  0  0  0  0  0  0  0  0  0  0
    7.3411   -0.6735   -1.3824 H   0  0  0  0  0  0  0  0  0  0  0  0
    5.5454    2.7722   -2.2417 H   0  0  0  0  0  0  0  0  0  0  0  0
    0.0722   -2.4508    4.5635 H   0  0  0  0  0  0  0  0  0  0  0  0
   -2.0210   -1.8046    3.3944 H   0  0  0  0  0  0  0  0  0  0  0  0
   -3.2648   -3.3114    0.5956 H   0  0  0  0  0  0  0  0  0  0  0  0
    0.0660    4.9511    3.0866 H   0  0  0  0  0  0  0  0  0  0  0  0
   -6.9690   -1.6167   -0.4047 H   0  0  0  0  0  0  0  0  0  0  0  0
    2.9462   -1.3971   -1.5015 H   0  0  0  0  0  0  0  0  0  0  0  0
    5.6836   -1.4869   -0.1842 H   0  0  0  0  0  0  0  0  0  0  0  0
    4.9376   -0.6091   -3.0144 H   0  0  0  0  0  0  0  0  0  0  0  0
    5.8790    1.1462   -0.7267 H   0  0  0  0  0  0  0  0  0  0  0  0
    0.3928   -1.1606    2.8683 H   0  0  0  0  0  0  0  0  0  0  0  0
    2.1749   -2.9736    2.5820 H   0  0  0  0  0  0  0  0  0  0  0  0
   -0.8738   -1.4683    0.8598 H   0  0  0  0  0  0  0  0  0  0  0  0
   -1.6650   -4.2461    1.8934 H   0  0  0  0  0  0  0  0  0  0  0  0
    3.0494    0.9269   -1.8913 H   0  0  0  0  0  0  0  0  0  0  0  0
    3.8116   -2.1444    1.3444 H   0  0  0  0  0  0  0  0  0  0  0  0
    3.2039   -3.2747    0.0923 H   0  0  0  0  0  0  0  0  0  0  0  0
    0.1191   -3.4615   -0.4202 H   0  0  0  0  0  0  0  0  0  0  0  0
   -0.3672   -6.2169    0.8421 H   0  0  0  0  0  0  0  0  0  0  0  0
   -1.1944   -5.6228   -0.6375 H   0  0  0  0  0  0  0  0  0  0  0  0
    0.5863   -5.8589   -0.6375 H   0  0  0  0  0  0  0  0  0  0  0  0
    1.3126    1.3977   -1.3796 H   0  0  0  0  0  0  0  0  0  0  0  0
    3.1542    3.9603    1.5733 H   0  0  0  0  0  0  0  0  0  0  0  0
   -1.9977    1.0406    1.1426 H   0  0  0  0  0  0  0  0  0  0  0  0
   -2.9293    3.6988   -0.0155 H   0  0  0  0  0  0  0  0  0  0  0  0
   -3.5173    2.9286    1.4934 H   0  0  0  0  0  0  0  0  0  0  0  0
   -4.1878    0.0066    1.2333 H   0  0  0  0  0  0  0  0  0  0  0  0
   -2.8054    1.9313   -2.3802 H   0  0  0  0  0  0  0  0  0  0  0  0
   -4.6761    0.8821   -3.6547 H   0  0  0  0  0  0  0  0  0  0  0  0
   -6.8046    0.6575   -4.1559 H   0  0  0  0  0  0  0  0  0  0  0  0
   -5.5935   -0.6257   -4.4926 H   0  0  0  0  0  0  0  0  0  0  0  0
   -7.3455   -1.0220   -4.4926 H   0  0  0  0  0  0  0  0  0  0  0  0
  1 16  1  0
  1 24  1  0
 21  2  1  0
  2 25  1  0
  3 21  1  0
  3 26  1  0
 17  4  1  0
 24  5  1  0
  5 28  1  0
 18  6  1  0
 19  7  1  0
 20  8  1  0
 22  9  1  0
 23 10  1  0
 11 30  1  0
 11 32  1  0
 12 35  1  0
 13 36  2  0
 14 42  1  0
 14 43  1  0
 15 40  1  0
 16 17  1  0
 16 25  1  0
 17 18  1  0
 18 19  1  0
 19 24  1  0
 20 21  1  0
 20 22  1  0
 22 23  1  0
 23 26  1  0
 26 27  1  0
 28 29  1  0
 28 31  2  0
 29 30  2  0
 30 33  1  0
 31 35  1  0
 32 34  1  0
 32 37  1  0
 33 35  2  0
 33 36  1  0
 34 36  1  0
 37 38  2  0
 37 39  1  0
 38 40  1  0
 39 41  2  0
 40 42  2  0
 41 42  1  0
  4 44  1  0
  6 45  1  0
  7 46  1  0
  8 47  1  0
  9 48  1  0
 10 49  1  0
 12 50  1  0
 15 51  1  0
 16 52  1  6
 17 53  1  1
 18 54  1  6
 19 55  1  1
 20 56  1  1
 21 57  1  1
 22 58  1  6
 23 59  1  1
 24 60  1  6
 25 61  1  0
 25 62  1  0
 26 63  1  6
 27 64  1  0
 27 65  1  0
 27 66  1  0
 29 67  1  0
 31 68  1  0
 32 69  1  1
 34 70  1  0
 34 71  1  0
 38 72  1  0
 39 73  1  0
 41 74  1  0
 43 75  1  0
 43 76  1  0
 43 77  1  0
M  END
>  <PUBCHEM_COMPOUND_CID>  (1) 
10621

>  <PUBCHEM_CONFORMER_RMSD>  (1) 
1.2

>  <PUBCHEM_CONFORMER_DIVERSEORDER>  (1) 
3
277
121
225
143
205
174
76
141
310
130
196
117
108
155
210
297
222
61
188
319
315
208
18
274
197
44
257
298
183
312
35
41
215
323
58
51
262
209
303
1
301
325
128
68
320
284
299
203
66
90
177
329
231
214
175
317
240
99
94
247
280
296
179
167
62
311
271
273
161
202
154
324
229
107
224
103
260
204
264
156
145
110
237
321
232
199
314
118
180
218
67
97
45
223
102
191
255
112
95
241
57
305
253
322
250
116
168
198
83
242
23
72
328
287
220
300
70
73
137
290
178
125
318
195
129
278
10
152
270
227
252
233
279
219
187
138
254
256
115
151
56
245
316
158
149
162
283
81
281
221
105
60
201
212
181
309
39
169
234
59
131
291
93
249
78
120
192
261
139
82
236
272
166
165
92
96
148
326
217
306
86
74
4
244
294
164
295
87
119
190
171
134
258
263
182
235
55
142
200
157
114
216
228
127
144
71
84
101
113
146
122
248
80
226
259
308
288
193
163
43
194
238
211
25
38
292
124
268
159
33
29
176
207
251
13
111
172
53
327
330
170
65
2
275
89
246
46
293
304
265
285
313
52
104
135
20
269
160
28
150
189
266
15
91
40
109
206
185
173
7
230
136
243
133
54
6
14
184
77
123
302
69
8
100
186
63
126
276
42
47
85
37
19
106
98
79
22
239
75
34
64
267
32
31
16
48
286
289
153
282
30
17
11
147
26
132
9
213
50
5
21
27
88
49
140
307
36
12
24

>  <PUBCHEM_MMFF94_PARTIAL_CHARGES>  (1) 
55
1 -0.56
10 -0.68
11 -0.36
12 -0.53
13 -0.57
14 -0.36
15 -0.53
16 0.28
17 0.28
18 0.28
19 0.28
2 -0.56
20 0.28
21 0.56
22 0.28
23 0.28
24 0.56
25 0.28
26 0.28
28 0.08
29 -0.15
3 -0.56
30 0.08
31 -0.15
32 0.42
33 0.09
34 0.06
35 0.08
36 0.42
37 -0.14
38 -0.15
39 -0.15
4 -0.68
40 0.08
41 -0.15
42 0.08
43 0.28
5 -0.36
59 0.4
6 -0.68
60 0.4
61 0.4
62 0.4
63 0.4
64 0.4
65 0.15
66 0.15
7 -0.68
70 0.15
71 0.15
72 0.45
73 0.15
74 0.45
8 -0.68
9 -0.68

>  <PUBCHEM_EFFECTIVE_ROTOR_COUNT>  (1) 
10

>  <PUBCHEM_PHARMACOPHORE_FEATURES>  (1) 
26
1 1 acceptor
1 10 acceptor
1 10 donor
1 11 acceptor
1 12 donor
1 13 acceptor
1 14 acceptor
1 15 donor
1 2 acceptor
1 3 acceptor
1 4 acceptor
1 4 donor
1 5 acceptor
1 6 acceptor
1 6 donor
1 7 acceptor
1 7 donor
1 8 acceptor
1 8 donor
1 9 acceptor
1 9 donor
6 1 16 17 18 19 24 rings
6 11 30 32 33 34 36 rings
6 28 29 30 31 33 35 rings
6 3 20 21 22 23 26 rings
6 37 38 39 40 41 42 rings

>  <PUBCHEM_HEAVY_ATOM_COUNT>  (1) 
43

>  <PUBCHEM_ATOM_DEF_STEREO_COUNT>  (1) 
11

>  <PUBCHEM_ATOM_UDEF_STEREO_COUNT>  (1) 
0

>  <PUBCHEM_BOND_DEF_STEREO_COUNT>  (1) 
0

>  <PUBCHEM_BOND_UDEF_STEREO_COUNT>  (1) 
0

>  <PUBCHEM_ISOTOPIC_ATOM_COUNT>  (1) 
0

>  <PUBCHEM_COMPONENT_COUNT>  (1) 
1

>  <PUBCHEM_CACTVS_TAUTO_COUNT>  (1) 
25

>  <PUBCHEM_CONFORMER_ID>  (1) 
0000297D00000003

>  <PUBCHEM_MMFF94_ENERGY>  (1) 
143.3033

>  <PUBCHEM_FEATURE_SELFOVERLAP>  (1) 
132.122

>  <PUBCHEM_SHAPE_FINGERPRINT>  (1) 
10032420 55 18337380552732031701
10622 236 18122905331146447926
10771551 21 18334857160840361326
10985338 1 16256934326710818853
11170278 133 18042103432986980135
11285246 1 18411419526879049437
11513181 2 17910970040929246246
12124843 1 18408323254827029886
12156800 1 16048105233996799667
12355185 1 18343016718181718455
14040221 126 16833710720650810055
14931854 50 18334579010189443726
15001296 14 17913462874591809463
15274700 21 17750243659542301875
15351339 4 18336543815861450442
16067689 391 18054533326040207078
17138139 8 18340484470115547516
20764821 26 18336552723565600242
20775438 99 17913465098773302391
21133410 62 17968107369942085937
21344244 181 18267861873467389071
238918 7 17333077032801155112
3298306 158 18042105687860153441
3383291 50 18412267250665993378
3534868 343 17834370351994501463
437795 51 18260834808971003091
4403749 210 17118021367471496904
44344687 77 18341895242982779271
44802255 64 16661226813911907270
45266715 3 18125979793275593429
50080093 196 17543077775175672690
50150288 127 17770240266192588569
508706 21 17753334458676534426
66674814 147 18261402096519841372
6669772 16 18124010572186925281
86090 222 18189606310750433585

>  <PUBCHEM_SHAPE_MULTIPOLES>  (1) 
796.88
12.97
7.04
3.29
3.61
1.97
-0.51
1.96
-17.16
-1.81
6.01
1.81
0.23
-0.37

>  <PUBCHEM_SHAPE_SELFOVERLAP>  (1) 
1720.27

>  <PUBCHEM_SHAPE_VOLUME>  (1) 
432.9

>  <PUBCHEM_COORDINATE_TYPE>  (1) 
2
5
10

$$$$
107905
     RDKit          3D

 50 53  0  0  1  0  0  0  0  0999 V2000
   -1.4133   -1.6739   -0.5726 O   0  0  0  0  0  0  0  0  0  0  0  0
   -0.2736    0.5108    0.9183 O   0  0  0  0  0  0  0  0  0  0  0  0
    2.2462   -3.3954    2.0954 O   0  0  0  0  0  0  0  0  0  0  0  0
    1.5821   -4.8636   -2.3818 O   0  0  0  0  0  0  0  0  0  0  0  0
   -3.7707    2.3588   -2.3133 O   0  0  0  0  0  0  0  0  0  0  0  0
    0.7055    1.2511    2.8657 O   0  0  0  0  0  0  0  0  0  0  0  0
   -6.0581    2.5757   -0.7490 O   0  0  0  0  0  0  0  0  0  0  0  0
    3.3323    0.7680   -2.4011 O   0  0  0  0  0  0  0  0  0  0  0  0
    4.2054    4.3210    0.6897 O   0  0  0  0  0  0  0  0  0  0  0  0
    4.7837    3.0156   -1.6836 O   0  0  0  0  0  0  0  0  0  0  0  0
   -0.9784   -0.5444    1.5737 C   0  0  1  0  0  0  0  0  0  0  0  0
   -2.0171   -1.1537    0.6228 C   0  0  1  0  0  0  0  0  0  0  0  0
    0.0153   -1.6236    1.9989 C   0  0  0  0  0  0  0  0  0  0  0  0
    0.4152   -2.4823    0.8294 C   0  0  0  0  0  0  0  0  0  0  0  0
   -0.3134   -2.4661   -0.3667 C   0  0  0  0  0  0  0  0  0  0  0  0
   -3.0974   -0.1546    0.2523 C   0  0  0  0  0  0  0  0  0  0  0  0
    1.5248   -3.3313    0.9393 C   0  0  0  0  0  0  0  0  0  0  0  0
    0.0869   -3.2558   -1.4478 C   0  0  0  0  0  0  0  0  0  0  0  0
   -2.9408    0.6547   -0.8720 C   0  0  0  0  0  0  0  0  0  0  0  0
   -4.2442   -0.0468    1.0375 C   0  0  0  0  0  0  0  0  0  0  0  0
    1.9148   -4.1297   -0.1365 C   0  0  0  0  0  0  0  0  0  0  0  0
    1.1985   -4.0886   -1.3307 C   0  0  0  0  0  0  0  0  0  0  0  0
    0.6948    1.1186    1.6517 C   0  0  0  0  0  0  0  0  0  0  0  0
   -3.9334    1.5737   -1.2119 C   0  0  0  0  0  0  0  0  0  0  0  0
   -5.2369    0.8721    0.6975 C   0  0  0  0  0  0  0  0  0  0  0  0
   -5.0814    1.6824   -0.4271 C   0  0  0  0  0  0  0  0  0  0  0  0
    1.7766    1.6220    0.7680 C   0  0  0  0  0  0  0  0  0  0  0  0
    2.4837    2.7431    1.1512 C   0  0  0  0  0  0  0  0  0  0  0  0
    2.0424    0.9513   -0.4083 C   0  0  0  0  0  0  0  0  0  0  0  0
    3.0601    1.4226   -1.2377 C   0  0  0  0  0  0  0  0  0  0  0  0
    3.5011    3.2145    0.3215 C   0  0  0  0  0  0  0  0  0  0  0  0
    3.7894    2.5542   -0.8729 C   0  0  0  0  0  0  0  0  0  0  0  0
    3.0277   -3.9999    2.1583 H   0  0  0  0  0  0  0  0  0  0  0  0
    2.3716   -5.4551   -2.2986 H   0  0  0  0  0  0  0  0  0  0  0  0
   -4.4701    3.0138   -2.5620 H   0  0  0  0  0  0  0  0  0  0  0  0
   -6.8696    2.6461   -0.1863 H   0  0  0  0  0  0  0  0  0  0  0  0
    4.0527    1.0950   -2.9962 H   0  0  0  0  0  0  0  0  0  0  0  0
    4.9294    4.6633    0.1076 H   0  0  0  0  0  0  0  0  0  0  0  0
    5.3011    3.8188   -1.4243 H   0  0  0  0  0  0  0  0  0  0  0  0
   -1.4944   -0.1414    2.4576 H   0  0  0  0  0  0  0  0  0  0  0  0
   -2.4801   -1.9871    1.1714 H   0  0  0  0  0  0  0  0  0  0  0  0
    0.9127   -1.1421    2.4146 H   0  0  0  0  0  0  0  0  0  0  0  0
   -0.4650   -2.2631    2.7541 H   0  0  0  0  0  0  0  0  0  0  0  0
   -0.4758   -3.2202   -2.3923 H   0  0  0  0  0  0  0  0  0  0  0  0
   -2.0352    0.5686   -1.4905 H   0  0  0  0  0  0  0  0  0  0  0  0
   -4.3661   -0.6859    1.9245 H   0  0  0  0  0  0  0  0  0  0  0  0
    2.7881   -4.7918   -0.0417 H   0  0  0  0  0  0  0  0  0  0  0  0
   -6.1424    0.9578    1.3162 H   0  0  0  0  0  0  0  0  0  0  0  0
    2.2490    3.2566    2.0953 H   0  0  0  0  0  0  0  0  0  0  0  0
    1.4614    0.0599   -0.6873 H   0  0  0  0  0  0  0  0  0  0  0  0
  1 12  1  0
  1 15  1  0
 11  2  1  0
  2 23  1  0
  3 17  1  0
  4 22  1  0
  5 24  1  0
  6 23  2  0
  7 26  1  0
  8 30  1  0
  9 31  1  0
 10 32  1  0
 11 12  1  0
 11 13  1  0
 12 16  1  0
 13 14  1  0
 14 15  1  0
 14 17  2  0
 15 18  2  0
 16 19  2  0
 16 20  1  0
 17 21  1  0
 18 22  1  0
 19 24  1  0
 20 25  2  0
 21 22  2  0
 23 27  1  0
 24 26  2  0
 25 26  1  0
 27 28  2  0
 27 29  1  0
 28 31  1  0
 29 30  2  0
 30 32  1  0
 31 32  2  0
  3 33  1  0
  4 34  1  0
  5 35  1  0
  7 36  1  0
  8 37  1  0
  9 38  1  0
 10 39  1  0
 11 40  1  1
 12 41  1  1
 13 42  1  0
 13 43  1  0
 18 44  1  0
 19 45  1  0
 20 46  1  0
 21 47  1  0
 25 48  1  0
 28 49  1  0
 29 50  1  0
M  END
>  <PUBCHEM_COMPOUND_CID>  (2) 
107905

>  <PUBCHEM_CONFORMER_RMSD>  (2) 
0.8

>  <PUBCHEM_CONFORMER_DIVERSEORDER>  (2) 
1
21
42
76
44
60
78
67
46
75
71
56
33
72
64
65
40
34
55
13
23
69
2
74
53
43
73
39
32
70
47
51
31
36
5
66
77
41
15
49
11
38
59
35
62
14
63
16
12
6
4
61
52
58
9
7
50
19
37
3
48
80
17
8
26
54
28
30
45
22
57
18
79
68
10
27
29
20
25
24

>  <PUBCHEM_MMFF94_PARTIAL_CHARGES>  (2) 
46
1 -0.36
10 -0.53
11 0.28
12 0.42
13 0.14
14 -0.14
15 0.08
16 -0.14
17 0.08
18 -0.15
19 -0.15
2 -0.43
20 -0.15
21 -0.15
22 0.08
23 0.63
24 0.08
25 -0.15
26 0.08
27 0.09
28 -0.15
29 -0.15
3 -0.53
30 0.08
31 0.08
32 0.08
37 0.15
38 0.15
39 0.15
4 -0.53
40 0.15
41 0.15
42 0.45
43 0.45
44 0.15
45 0.15
46 0.45
47 0.45
48 0.45
49 0.45
5 -0.53
50 0.45
6 -0.57
7 -0.53
8 -0.53
9 -0.53

>  <PUBCHEM_EFFECTIVE_ROTOR_COUNT>  (2) 
4.8

>  <PUBCHEM_PHARMACOPHORE_FEATURES>  (2) 
13
1 1 acceptor
1 10 donor
1 3 donor
1 4 donor
1 5 donor
1 6 acceptor
1 7 donor
1 8 donor
1 9 donor
6 1 11 12 13 14 15 rings
6 14 15 17 18 21 22 rings
6 16 19 20 24 25 26 rings
6 27 28 29 30 31 32 rings

>  <PUBCHEM_HEAVY_ATOM_COUNT>  (2) 
32

>  <PUBCHEM_ATOM_DEF_STEREO_COUNT>  (2) 
2

>  <PUBCHEM_ATOM_UDEF_STEREO_COUNT>  (2) 
0

>  <PUBCHEM_BOND_DEF_STEREO_COUNT>  (2) 
0

>  <PUBCHEM_BOND_UDEF_STEREO_COUNT>  (2) 
0

>  <PUBCHEM_ISOTOPIC_ATOM_COUNT>  (2) 
0

>  <PUBCHEM_COMPONENT_COUNT>  (2) 
1

>  <PUBCHEM_CACTVS_TAUTO_COUNT>  (2) 
998

>  <PUBCHEM_CONFORMER_ID>  (2) 
0001A58100000001

>  <PUBCHEM_MMFF94_ENERGY>  (2) 
96.2552

>  <PUBCHEM_FEATURE_SELFOVERLAP>  (2) 
66.019

>  <PUBCHEM_SHAPE_FINGERPRINT>  (2) 
10165383 225 18268729353671085905
10190108 129 17982745370444851195
10369192 42 18188786062080869749
10675989 125 18271817799849984736
10721379 63 18266468598386143737
107951 10 18043264637224412450
11477941 20 17190973470464308134
11488393 25 18263654973969040811
11578080 2 17535793704236295651
11720765 8 17983008956054072956
11763715 3 16628836167630556915
12160290 23 17690819573654013043
12422481 6 17756103914150593562
12741549 16 17692228761029296937
12788726 201 17546144755212533450
133893 2 18193293904797747305
13681431 1 18053659175113229091
140371 6 18126007061732968323
151778 21 18409725153933383881
15210252 30 17543630825244547117
15463212 79 17902778992734233056
15664445 248 17905891379266522259
16988056 13 17761192342216442373
17357779 13 17337005124344216747
17899979 19 18115877300641817810
1813 80 17767962031129502235
18785283 64 18337945684987391675
20600515 1 17762046649760690987
21033648 29 18268153243442744288
21304303 282 17767089345050525990
21641784 216 17551809018676615102
21857420 4 17400343560623833349
23419403 2 17542281934968301995
23559900 14 18119518844302542931
24893989 43 15380973917114582396
25019877 29 17910410694627212727
26353 1 17693089665411521527
3298306 158 18409174320008715154
3411729 13 18261393313200697945
376196 1 18261110802635715897
4015057 19 16915397717112493976
4394409 98 18339378409258666942
44802255 64 17900005981923383492
46194498 28 18192988232645177637
5081480 168 17974286517726548725
5252454 2 18341047501894874113
5265222 85 18044680795690405756

>  <PUBCHEM_SHAPE_MULTIPOLES>  (2) 
599.85
9.1
6.32
2.24
10.12
5.19
-0.02
-12.66
-3.22
-7.71
-1.95
-0.86
0.39
0.97

>  <PUBCHEM_SHAPE_SELFOVERLAP>  (2) 
1336.642

>  <PUBCHEM_SHAPE_VOLUME>  (2) 
316.7

>  <PUBCHEM_COORDINATE_TYPE>  (2) 
2
5
10

$$$$
1203
     RDKit          3D

 35 37  0  0  1  0  0  0  0  0999 V2000
    0.4554    0.7571   -0.1114 O   0  0  0  0  0  0  0  0  0  0  0  0
   -0.0198   -1.3181    1.8283 O   0  0  0  0  0  0  0  0  0  0  0  0
    4.3334   -2.1453   -0.0043 O   0  0  0  0  0  0  0  0  0  0  0  0
    4.8215    2.5776   -0.3171 O   0  0  0  0  0  0  0  0  0  0  0  0
   -5.1189   -0.8225   -1.5254 O   0  0  0  0  0  0  0  0  0  0  0  0
   -5.8048    0.9634    0.4911 O   0  0  0  0  0  0  0  0  0  0  0  0
    0.0528   -1.6121    0.4327 C   0  0  1  0  0  0  0  0  0  0  0  0
   -0.3707   -0.3857   -0.3865 C   0  0  1  0  0  0  0  0  0  0  0  0
    1.4880   -1.9916    0.0735 C   0  0  0  0  0  0  0  0  0  0  0  0
    2.3596   -0.7696   -0.0367 C   0  0  0  0  0  0  0  0  0  0  0  0
    1.8044    0.5129   -0.1299 C   0  0  0  0  0  0  0  0  0  0  0  0
   -1.8267   -0.0272   -0.1539 C   0  0  0  0  0  0  0  0  0  0  0  0
    3.7534   -0.9121   -0.0674 C   0  0  0  0  0  0  0  0  0  0  0  0
    2.6318    1.6361   -0.2107 C   0  0  0  0  0  0  0  0  0  0  0  0
   -2.8188   -0.5931   -0.9529 C   0  0  0  0  0  0  0  0  0  0  0  0
   -2.1694    0.8683    0.8581 C   0  0  0  0  0  0  0  0  0  0  0  0
    4.5779    0.2096   -0.1623 C   0  0  0  0  0  0  0  0  0  0  0  0
    4.0172    1.4831   -0.2297 C   0  0  0  0  0  0  0  0  0  0  0  0
   -4.1571   -0.2628   -0.7396 C   0  0  0  0  0  0  0  0  0  0  0  0
   -3.5076    1.1987    1.0713 C   0  0  0  0  0  0  0  0  0  0  0  0
   -4.5014    0.6331    0.2726 C   0  0  0  0  0  0  0  0  0  0  0  0
    0.1821   -2.1357    2.3487 H   0  0  0  0  0  0  0  0  0  0  0  0
    5.3195   -2.2303   -0.0270 H   0  0  0  0  0  0  0  0  0  0  0  0
    5.8054    2.4690   -0.3306 H   0  0  0  0  0  0  0  0  0  0  0  0
   -6.0712   -0.5937   -1.3809 H   0  0  0  0  0  0  0  0  0  0  0  0
   -6.0400    1.6001    1.2118 H   0  0  0  0  0  0  0  0  0  0  0  0
   -0.6242   -2.4480    0.2027 H   0  0  0  0  0  0  0  0  0  0  0  0
   -0.2403   -0.6650   -1.4424 H   0  0  0  0  0  0  0  0  0  0  0  0
    1.8916   -2.6516    0.8555 H   0  0  0  0  0  0  0  0  0  0  0  0
    1.4809   -2.5048   -0.8994 H   0  0  0  0  0  0  0  0  0  0  0  0
    2.1894    2.6420   -0.2594 H   0  0  0  0  0  0  0  0  0  0  0  0
   -2.5466   -1.2995   -1.7509 H   0  0  0  0  0  0  0  0  0  0  0  0
   -1.3852    1.3139    1.4878 H   0  0  0  0  0  0  0  0  0  0  0  0
    5.6710    0.0883   -0.1839 H   0  0  0  0  0  0  0  0  0  0  0  0
   -3.7792    1.9053    1.8693 H   0  0  0  0  0  0  0  0  0  0  0  0
  1  8  1  0
  1 11  1  0
  7  2  1  0
  3 13  1  0
  4 18  1  0
  5 19  1  0
  6 21  1  0
  7  8  1  0
  7  9  1  0
  8 12  1  0
  9 10  1  0
 10 11  1  0
 10 13  2  0
 11 14  2  0
 12 15  2  0
 12 16  1  0
 13 17  1  0
 14 18  1  0
 15 19  1  0
 16 20  2  0
 17 18  2  0
 19 21  2  0
 20 21  1  0
  2 22  1  0
  3 23  1  0
  4 24  1  0
  5 25  1  0
  6 26  1  0
  7 27  1  1
  8 28  1  6
  9 29  1  0
  9 30  1  0
 14 31  1  0
 15 32  1  0
 16 33  1  0
 17 34  1  0
 20 35  1  0
M  END
>  <PUBCHEM_COMPOUND_CID>  (3) 
1203

>  <PUBCHEM_CONFORMER_RMSD>  (3) 
0.6

>  <PUBCHEM_CONFORMER_DIVERSEORDER>  (3) 
8
5
9
14
20
15
22
12
23
17
11
10
24
2
21
16
6
13
25
19
3
7
4
18
1

>  <PUBCHEM_MMFF94_PARTIAL_CHARGES>  (3) 
31
1 -0.36
10 -0.14
11 0.08
12 -0.14
13 0.08
14 -0.15
15 -0.15
16 -0.15
17 -0.15
18 0.08
19 0.08
2 -0.68
20 -0.15
21 0.08
26 0.15
27 0.15
28 0.4
29 0.15
3 -0.53
30 0.15
31 0.15
32 0.45
33 0.45
34 0.45
35 0.45
4 -0.53
5 -0.53
6 -0.53
7 0.28
8 0.42
9 0.14

>  <PUBCHEM_EFFECTIVE_ROTOR_COUNT>  (3) 
1.8

>  <PUBCHEM_PHARMACOPHORE_FEATURES>  (3) 
10
1 1 acceptor
1 2 acceptor
1 2 donor
1 3 donor
1 4 donor
1 5 donor
1 6 donor
6 1 7 8 9 10 11 rings
6 10 11 13 14 17 18 rings
6 12 15 16 19 20 21 rings

>  <PUBCHEM_HEAVY_ATOM_COUNT>  (3) 
21

>  <PUBCHEM_ATOM_DEF_STEREO_COUNT>  (3) 
0

>  <PUBCHEM_ATOM_UDEF_STEREO_COUNT>  (3) 
2

>  <PUBCHEM_BOND_DEF_STEREO_COUNT>  (3) 
0

>  <PUBCHEM_BOND_UDEF_STEREO_COUNT>  (3) 
0

>  <PUBCHEM_ISOTOPIC_ATOM_COUNT>  (3) 
0

>  <PUBCHEM_COMPONENT_COUNT>  (3) 
1

>  <PUBCHEM_CACTVS_TAUTO_COUNT>  (3) 
90

>  <PUBCHEM_CONFORMER_ID>  (3) 
000004B300000008

>  <PUBCHEM_MMFF94_ENERGY>  (3) 
59.9404

>  <PUBCHEM_FEATURE_SELFOVERLAP>  (3) 
50.784

>  <PUBCHEM_SHAPE_FINGERPRINT>  (3) 
10411042 1 17760649170835656874
10595046 47 18272650173132726693
10912923 1 18131070433053154673
11471102 20 18335420158296820614
12107183 9 17623298173428154049
12236239 1 18343865498709679005
12403259 415 17676203546268029317
12616971 3 18341895152128855567
13140716 1 18260550048012320250
13167823 11 18272931609354647903
13631057 29 18195521730727134063
13760787 5 18411416198563764037
14528608 73 18342739649772991876
14739800 52 17631717375208541968
15196674 1 18410857680758298039
15342168 16 18115315603953651644
15375358 24 16805318890594390677
15848702 151 18199189490457082542
17834072 33 18343863316497014711
18186145 218 18114180826280569534
19784866 240 16414931721270864054
200 152 18272085002918577055
204376 136 17968098658957293691
20612939 158 18409448076976460060
20645477 70 18410009914623425270
21033648 144 18261387883961142022
21033648 29 17095516288463219397
21267235 1 18341903939268225703
21709351 56 18339357444526035244
22079108 93 18114188553301158371
23402539 116 17846492621823497613
23402655 69 18342738554735380646
23557571 272 15123517951815092776
23558518 356 17391358781388228490
23559900 14 18335986441461387738
29717793 49 17988639658215480789
335352 9 18409169927158979030
34797466 226 15841269358428766528
4340502 62 17967825929435974331
474 4 18334859462826910644
5104073 3 18335421291698845043
542803 24 18412262835333585485
602551 16 15697420226518036815
633830 44 18335421244512200223
67856867 119 18201429307607216128
69090 78 18410290328484653302
7495541 125 16845281765792324683
8272917 22 18341618088104852166
9981440 41 17405693157234727560

>  <PUBCHEM_SHAPE_MULTIPOLES>  (3) 
396.95
11.38
2
1.01
5.2
0.08
-0.13
3.26
1.59
-2.45
-0.12
0.98
-0.17
-1.17

>  <PUBCHEM_SHAPE_SELFOVERLAP>  (3) 
876.493

>  <PUBCHEM_SHAPE_VOLUME>  (3) 
211.8

>  <PUBCHEM_COORDINATE_TYPE>  (3) 
2
5
10

$$$$
31553
     RDKit          3D

 57 61  0  0  1  0  0  0  0  0999 V2000
    1.8496   -0.0580    0.3713 O   0  0  0  0  0  0  0  0  0  0  0  0
    2.4090   -2.8785    0.4994 O   0  0  0  0  0  0  0  0  0  0  0  0
   -3.2660   -0.2457    0.8250 O   0  0  0  0  0  0  0  0  0  0  0  0
   -2.6733   -0.9779   -2.7354 O   0  0  0  0  0  0  0  0  0  0  0  0
    4.9731   -3.7225    0.0464 O   0  0  0  0  0  0  0  0  0  0  0  0
   -4.9833    0.4216   -2.8421 O   0  0  0  0  0  0  0  0  0  0  0  0
   -7.0570    1.4730   -1.6827 O   0  0  0  0  0  0  0  0  0  0  0  0
    5.8561    2.2706   -1.9375 O   0  0  0  0  0  0  0  0  0  0  0  0
   -7.0022    1.6240    3.0601 O   0  0  0  0  0  0  0  0  0  0  0  0
    6.9999    3.4580    0.2997 O   0  0  0  0  0  0  0  0  0  0  0  0
    3.0746   -0.5790    0.9169 C   0  0  1  0  0  0  0  0  0  0  0  0
    3.4326   -1.9054    0.2267 C   0  0  1  0  0  0  0  0  0  0  0  0
   -2.8830   -1.0125   -0.3276 C   0  0  2  0  0  0  0  0  0  0  0  0
   -1.4629   -1.4934   -0.0959 C   0  0  0  0  0  0  0  0  0  0  0  0
   -2.9993   -0.1838   -1.6081 C   0  0  2  0  0  0  0  0  0  0  0  0
    0.8793   -1.0139    0.2428 C   0  0  0  0  0  0  0  0  0  0  0  0
    1.1486   -2.3800    0.3150 C   0  0  0  0  0  0  0  0  0  0  0  0
    4.1229    0.4991    0.7488 C   0  0  0  0  0  0  0  0  0  0  0  0
   -0.4246   -0.5693    0.0222 C   0  0  0  0  0  0  0  0  0  0  0  0
    4.7412   -2.5062    0.7326 C   0  0  0  0  0  0  0  0  0  0  0  0
   -1.1976   -2.8592    0.0043 C   0  0  0  0  0  0  0  0  0  0  0  0
   -4.4311    0.2821   -1.7572 C   0  0  0  0  0  0  0  0  0  0  0  0
    0.1082   -3.3039    0.2115 C   0  0  0  0  0  0  0  0  0  0  0  0
   -5.1316    0.6027   -0.4981 C   0  0  0  0  0  0  0  0  0  0  0  0
   -4.5016    0.3350    0.7193 C   0  0  0  0  0  0  0  0  0  0  0  0
    4.5149    0.8965   -0.5293 C   0  0  0  0  0  0  0  0  0  0  0  0
    4.6967    1.0946    1.8718 C   0  0  0  0  0  0  0  0  0  0  0  0
   -6.3980    1.1934   -0.5236 C   0  0  0  0  0  0  0  0  0  0  0  0
   -5.1269    0.6920    1.9150 C   0  0  0  0  0  0  0  0  0  0  0  0
    5.4817    1.8900   -0.6844 C   0  0  0  0  0  0  0  0  0  0  0  0
    5.6635    2.0879    1.7167 C   0  0  0  0  0  0  0  0  0  0  0  0
   -6.3894    1.2853    1.8926 C   0  0  0  0  0  0  0  0  0  0  0  0
   -7.0255    1.5310    0.6758 C   0  0  0  0  0  0  0  0  0  0  0  0
    6.0559    2.4858    0.4387 C   0  0  0  0  0  0  0  0  0  0  0  0
    6.9458    1.5668   -2.5304 C   0  0  0  0  0  0  0  0  0  0  0  0
   -2.3154   -1.8498   -2.4325 H   0  0  0  0  0  0  0  0  0  0  0  0
    5.1119   -4.4505    0.7028 H   0  0  0  0  0  0  0  0  0  0  0  0
   -7.9534    1.8922   -1.6537 H   0  0  0  0  0  0  0  0  0  0  0  0
   -7.8981    2.0450    3.0449 H   0  0  0  0  0  0  0  0  0  0  0  0
    7.4023    3.8756    1.1021 H   0  0  0  0  0  0  0  0  0  0  0  0
    2.9901   -0.8204    1.9868 H   0  0  0  0  0  0  0  0  0  0  0  0
    3.5288   -1.6762   -0.8449 H   0  0  0  0  0  0  0  0  0  0  0  0
   -3.5557   -1.8725   -0.4614 H   0  0  0  0  0  0  0  0  0  0  0  0
   -2.3101    0.6713   -1.5467 H   0  0  0  0  0  0  0  0  0  0  0  0
   -0.6335    0.5077   -0.0584 H   0  0  0  0  0  0  0  0  0  0  0  0
    4.6678   -2.6982    1.8132 H   0  0  0  0  0  0  0  0  0  0  0  0
    5.5712   -1.8075    0.5512 H   0  0  0  0  0  0  0  0  0  0  0  0
   -2.0188   -3.5862   -0.0801 H   0  0  0  0  0  0  0  0  0  0  0  0
    0.3173   -4.3808    0.2931 H   0  0  0  0  0  0  0  0  0  0  0  0
    4.0618    0.4267   -1.4147 H   0  0  0  0  0  0  0  0  0  0  0  0
    4.3869    0.7810    2.8796 H   0  0  0  0  0  0  0  0  0  0  0  0
   -4.6241    0.5055    2.8754 H   0  0  0  0  0  0  0  0  0  0  0  0
    6.1165    2.5575    2.6023 H   0  0  0  0  0  0  0  0  0  0  0  0
   -8.0241    1.9920    0.6619 H   0  0  0  0  0  0  0  0  0  0  0  0
    7.5881    1.1520   -1.7396 H   0  0  0  0  0  0  0  0  0  0  0  0
    6.5576    0.7484   -3.1544 H   0  0  0  0  0  0  0  0  0  0  0  0
    7.5321    2.2573   -3.1544 H   0  0  0  0  0  0  0  0  0  0  0  0
  1 11  1  0
  1 16  1  0
  2 12  1  0
  2 17  1  0
  3 13  1  0
  3 25  1  0
 15  4  1  0
  5 20  1  0
  6 22  2  0
  7 28  1  0
  8 30  1  0
  8 35  1  0
  9 32  1  0
 10 34  1  0
 11 12  1  0
 11 18  1  0
 12 20  1  0
 13 14  1  0
 13 15  1  0
 14 19  2  0
 14 21  1  0
 15 22  1  0
 16 17  2  0
 16 19  1  0
 17 23  1  0
 18 26  2  0
 18 27  1  0
 21 23  2  0
 22 24  1  0
 24 25  1  0
 24 28  2  0
 25 29  2  0
 26 30  1  0
 27 31  2  0
 28 33  1  0
 29 32  1  0
 30 34  2  0
 31 34  1  0
 32 33  2  0
  4 36  1  0
  5 37  1  0
  7 38  1  0
  9 39  1  0
 10 40  1  0
 11 41  1  1
 12 42  1  6
 13 43  1  6
 15 44  1  1
 19 45  1  0
 20 46  1  0
 20 47  1  0
 21 48  1  0
 23 49  1  0
 26 50  1  0
 27 51  1  0
 29 52  1  0
 31 53  1  0
 33 54  1  0
 35 55  1  0
 35 56  1  0
 35 57  1  0
M  END
>  <PUBCHEM_COMPOUND_CID>  (4) 
31553

>  <PUBCHEM_CONFORMER_RMSD>  (4) 
0.8

>  <PUBCHEM_CONFORMER_DIVERSEORDER>  (4) 
1
106
130
72
44
97
119
114
105
62
139
32
117
75
43
79
127
29
2
18
101
98
137
63
140
126
56
93
4
38
67
30
125
115
19
142
77
92
96
50
133
129
121
124
107
95
141
22
3
70
103
99
11
49
108
90
64
76
20
131
109
59
65
122
14
71
9
7
69
102
55
51
37
82
134
57
81
74
113
47
80
87
13
58
60
110
123
40
39
23
111
138
21
83
135
128
36
16
48
112
54
68
25
118
10
31
84
94
120
46
91
66
132
27
17
100
35
12
45
53
26
28
8
143
41
33
86
78
136
5
88
85
24
15
34
61
6
89
73
52
42
116
104

>  <PUBCHEM_MMFF94_PARTIAL_CHARGES>  (4) 
48
1 -0.36
10 -0.53
11 0.42
12 0.28
13 0.42
14 -0.14
15 0.34
16 0.08
17 0.08
18 -0.14
19 -0.15
2 -0.36
20 0.28
21 -0.15
22 0.42
23 -0.15
24 0.09
25 0.08
26 -0.15
27 -0.15
28 0.08
29 -0.15
3 -0.36
30 0.08
31 -0.15
32 0.08
33 -0.15
34 0.08
35 0.28
4 -0.68
40 0.15
43 0.15
44 0.15
45 0.15
46 0.15
47 0.15
48 0.4
49 0.15
5 -0.68
50 0.15
51 0.4
52 0.45
53 0.45
54 0.45
6 -0.57
7 -0.53
8 -0.36
9 -0.53

>  <PUBCHEM_EFFECTIVE_ROTOR_COUNT>  (4) 
5.4

>  <PUBCHEM_PHARMACOPHORE_FEATURES>  (4) 
17
1 1 acceptor
1 10 donor
1 2 acceptor
1 3 acceptor
1 4 acceptor
1 4 donor
1 5 acceptor
1 5 donor
1 6 acceptor
1 7 donor
1 8 acceptor
1 9 donor
6 1 2 11 12 16 17 rings
6 14 16 17 19 21 23 rings
6 18 26 27 30 31 34 rings
6 24 25 28 29 32 33 rings
6 3 13 15 22 24 25 rings

>  <PUBCHEM_HEAVY_ATOM_COUNT>  (4) 
35

>  <PUBCHEM_ATOM_DEF_STEREO_COUNT>  (4) 
4

>  <PUBCHEM_ATOM_UDEF_STEREO_COUNT>  (4) 
0

>  <PUBCHEM_BOND_DEF_STEREO_COUNT>  (4) 
0

>  <PUBCHEM_BOND_UDEF_STEREO_COUNT>  (4) 
0

>  <PUBCHEM_ISOTOPIC_ATOM_COUNT>  (4) 
0

>  <PUBCHEM_COMPONENT_COUNT>  (4) 
1

>  <PUBCHEM_CACTVS_TAUTO_COUNT>  (4) 
117

>  <PUBCHEM_CONFORMER_ID>  (4) 
00007B4100000001

>  <PUBCHEM_MMFF94_ENERGY>  (4) 
117.2273

>  <PUBCHEM_FEATURE_SELFOVERLAP>  (4) 
86.363

>  <PUBCHEM_SHAPE_FINGERPRINT>  (4) 
10 15 17167864179535985733
10319926 262 16081088130831053623
10554248 39 18271517607183797190
11273773 42 18131630114737235673
11331351 85 17341806721930767490
11410812 94 15984835809442061408
11475781 23 14548730660599342899
1200032 147 18261399966410956138
12236239 1 17703214110984409639
12390115 104 18339364174793061387
12422481 6 17168409546220066172
12975358 362 18113626655568356525
13383665 225 17897179102699992046
13627167 48 17988086595145633201
13726171 33 17753345450484528780
13878862 14 18264752316780893310
14118638 360 18341604979791363983
14150022 121 18192438687285454051
14294032 229 18115598195579777822
14747281 78 17986697925002656662
14840074 17 18343019974247294581
15064981 194 17844523512963511917
15081414 286 18334011688133569924
15131766 46 18342727500128403157
15183329 4 16630811006045310861
15297060 5 18262806293528619900
15513586 35 17100879916695261580
15519825 34 14129346247030757713
15530120 55 16055743446839517748
15685185 35 18270963578072979433
1577012 14 17846498115419095617
18393751 57 17967530160776745995
19304671 126 17846225496834241400
19309040 13 18271245023348519718
19377110 9 13118005491635712846
19958102 18 13470692533626197813
20691028 202 18410857659320566881
21033648 144 18409718561380163463
21033648 29 17604143723896396471
21033650 10 15984834717898057707
22122407 14 18198067972070789209
22311459 1 18194961847111797898
23081809 10 17917703587702806283
23522609 53 17846508002265220697
23559900 14 18412536597262079170
23569914 152 16555962723111461636
249057 25 17845636067890254575
25269216 80 16988277694639972823
2748736 6 18411409644169779584
312425 54 14201381764514686744
3178227 256 18188490151983139978
34797466 226 14404602360167732363
3504750 166 12035711108086252483
3610482 184 17775000211222055983
38570 142 18131361799355456747
397830 11 16370727041001203449
3986486 107 17917446349664962484
4258327 124 18335132129653749535
42767 28 15339126761926265012
437795 70 16917355856557446808
50009960 94 11813968166171908276
5104073 3 18334569161666611994
513532 50 16199858554027367706
5364581 5 16877949386152046525
57527293 21 17458338662977929842
57724786 102 18410855443238800522
59682541 52 17060069133738810252
6608658 132 17632859699001973345
6697151 62 17320108971699185699
6712543 237 14779256502231170161
9962374 69 18265598919212919946

>  <PUBCHEM_SHAPE_MULTIPOLES>  (4) 
661.59
21.8
3.61
2.26
6.27
2.07
-0.73
-21.11
0.45
-6.6
0.51
2.19
-1.41
-2.1

>  <PUBCHEM_SHAPE_SELFOVERLAP>  (4) 
1473.277

>  <PUBCHEM_SHAPE_VOLUME>  (4) 
349.4

>  <PUBCHEM_COORDINATE_TYPE>  (4) 
2
5
10

$$$$
439246
     RDKit          3D

 32 34  0  0  1  0  0  0  0  0999 V2000
    0.0447   -0.7890   -0.1534 O   0  0  0  0  0  0  0  0  0  0  0  0
    1.7541    2.9394   -0.0655 O   0  0  0  0  0  0  0  0  0  0  0  0
    4.1136    1.8515    0.1138 O   0  0  0  0  0  0  0  0  0  0  0  0
    4.2929   -2.8906   -0.0094 O   0  0  0  0  0  0  0  0  0  0  0  0
   -6.2197   -0.5953   -0.2336 O   0  0  0  0  0  0  0  0  0  0  0  0
   -0.6674    0.3322    0.3930 C   0  0  1  0  0  0  0  0  0  0  0  0
   -0.2460    1.6333   -0.2872 C   0  0  0  0  0  0  0  0  0  0  0  0
   -2.1517    0.0844    0.2254 C   0  0  0  0  0  0  0  0  0  0  0  0
    2.0471    0.5970   -0.0248 C   0  0  0  0  0  0  0  0  0  0  0  0
    1.2358    1.8296   -0.0979 C   0  0  0  0  0  0  0  0  0  0  0  0
    1.4060   -0.6441   -0.0793 C   0  0  0  0  0  0  0  0  0  0  0  0
    3.4401    0.6689    0.0540 C   0  0  0  0  0  0  0  0  0  0  0  0
    2.1633   -1.8163   -0.0889 C   0  0  0  0  0  0  0  0  0  0  0  0
   -2.9682   -0.0407    1.3488 C   0  0  0  0  0  0  0  0  0  0  0  0
   -2.7007   -0.0184   -1.0523 C   0  0  0  0  0  0  0  0  0  0  0  0
    4.1909   -0.5072    0.0647 C   0  0  0  0  0  0  0  0  0  0  0  0
    3.5546   -1.7467   -0.0116 C   0  0  0  0  0  0  0  0  0  0  0  0
   -4.3355   -0.2692    1.1943 C   0  0  0  0  0  0  0  0  0  0  0  0
   -4.0681   -0.2468   -1.2068 C   0  0  0  0  0  0  0  0  0  0  0  0
   -4.8856   -0.3721   -0.0834 C   0  0  0  0  0  0  0  0  0  0  0  0
    5.1021    1.8560    0.1688 H   0  0  0  0  0  0  0  0  0  0  0  0
    5.2802   -2.8424    0.0454 H   0  0  0  0  0  0  0  0  0  0  0  0
   -6.6104   -0.6684   -1.1403 H   0  0  0  0  0  0  0  0  0  0  0  0
   -0.4293    0.4378    1.4617 H   0  0  0  0  0  0  0  0  0  0  0  0
   -0.4763    1.5790   -1.3614 H   0  0  0  0  0  0  0  0  0  0  0  0
   -0.7921    2.4783    0.1574 H   0  0  0  0  0  0  0  0  0  0  0  0
    1.6638   -2.7940   -0.1573 H   0  0  0  0  0  0  0  0  0  0  0  0
   -2.5343    0.0408    2.3563 H   0  0  0  0  0  0  0  0  0  0  0  0
   -2.0558    0.0806   -1.9379 H   0  0  0  0  0  0  0  0  0  0  0  0
    5.2876   -0.4571    0.1335 H   0  0  0  0  0  0  0  0  0  0  0  0
   -4.9801   -0.3683    2.0802 H   0  0  0  0  0  0  0  0  0  0  0  0
   -4.5018   -0.3281   -2.2144 H   0  0  0  0  0  0  0  0  0  0  0  0
  1  6  1  0
  1 11  1  0
  2 10  2  0
  3 12  1  0
  4 17  1  0
  5 20  1  0
  6  7  1  0
  6  8  1  0
  7 10  1  0
  8 14  1  0
  8 15  2  0
  9 10  1  0
  9 11  1  0
  9 12  2  0
 11 13  2  0
 12 16  1  0
 13 17  1  0
 14 18  2  0
 15 19  1  0
 16 17  2  0
 18 20  1  0
 19 20  2  0
  3 21  1  0
  4 22  1  0
  5 23  1  0
  6 24  1  1
  7 25  1  0
  7 26  1  0
 13 27  1  0
 14 28  1  0
 15 29  1  0
 16 30  1  0
 18 31  1  0
 19 32  1  0
M  END
>  <PUBCHEM_COMPOUND_CID>  (5) 
439246

>  <PUBCHEM_CONFORMER_RMSD>  (5) 
0.6

>  <PUBCHEM_CONFORMER_DIVERSEORDER>  (5) 
1
2
4
3

>  <PUBCHEM_MMFF94_PARTIAL_CHARGES>  (5) 
29
1 -0.36
10 0.42
11 0.08
12 0.08
13 -0.15
14 -0.15
15 -0.15
16 -0.15
17 0.08
18 -0.15
19 -0.15
2 -0.57
20 0.08
24 0.15
25 0.15
26 0.15
27 0.15
28 0.15
29 0.15
3 -0.53
30 0.45
31 0.45
32 0.45
4 -0.53
5 -0.53
6 0.42
7 0.06
8 -0.14
9 0.09

>  <PUBCHEM_EFFECTIVE_ROTOR_COUNT>  (5) 
1.6

>  <PUBCHEM_PHARMACOPHORE_FEATURES>  (5) 
8
1 1 acceptor
1 2 acceptor
1 3 donor
1 4 donor
1 5 donor
6 1 6 7 9 10 11 rings
6 8 14 15 18 19 20 rings
6 9 11 12 13 16 17 rings

>  <PUBCHEM_HEAVY_ATOM_COUNT>  (5) 
20

>  <PUBCHEM_ATOM_DEF_STEREO_COUNT>  (5) 
1

>  <PUBCHEM_ATOM_UDEF_STEREO_COUNT>  (5) 
0

>  <PUBCHEM_BOND_DEF_STEREO_COUNT>  (5) 
0

>  <PUBCHEM_BOND_UDEF_STEREO_COUNT>  (5) 
0

>  <PUBCHEM_ISOTOPIC_ATOM_COUNT>  (5) 
0

>  <PUBCHEM_COMPONENT_COUNT>  (5) 
1

>  <PUBCHEM_CACTVS_TAUTO_COUNT>  (5) 
42

>  <PUBCHEM_CONFORMER_ID>  (5) 
0006B3CE00000001

>  <PUBCHEM_MMFF94_ENERGY>  (5) 
57.1464

>  <PUBCHEM_FEATURE_SELFOVERLAP>  (5) 
40.627

>  <PUBCHEM_SHAPE_FINGERPRINT>  (5) 
10411042 1 18194401096497499894
10912923 1 17775289374169302715
11471102 20 18409167739986922888
11796584 16 16515682217453739826
12107183 9 17911812266988603433
12236239 1 17846782927527132233
12553582 1 18340770347454809686
12670546 56 17846780715271218321
13134695 92 18411134740508959964
13140716 1 18051691341700314056
13167823 11 18130787863002487727
13533116 47 18272650164722211747
13544592 145 17966972716770788683
13544653 18 18335425625310108060
13862211 1 18338234865420683466
13955234 65 18340485685327503208
14386348 63 17821730550577017571
14739800 52 16629947941436961896
14790565 3 17904208371068351932
15196674 1 18410573942260151277
15375462 189 18060137647747350688
15848702 151 18412829058120703567
15961568 22 16154277250766570276
16945 1 18410295852155461268
17349148 13 17846780711028842527
17357779 13 18114170922175851245
1813 80 18200606786772715838
18222031 100 18271244928563761478
200 152 18272086102577871905
20028762 73 18130783430206797126
20279233 1 17749392581021324323
20645477 70 18335135392905805654
21065198 48 18131358488072886857
21065201 7 16588021308006322843
21267235 1 18341056233378757550
21641784 216 17969523545145804468
221357 26 18261384530156296565
221490 88 18335983052420961404
22182313 1 18262780892622565436
22224240 67 18200020885253010696
2255824 54 18270403909495216028
22646028 1 17988924470476783875
23175994 123 18113341899341203757
23557571 272 17167855357525519293
23559900 14 17385448725726135674
2748010 2 18265604391306515124
2871803 45 18114181891432511050
312423 11 18269850739150516656
33824 294 18409164437578864202
345986 75 18059008367991254122
34797466 226 16515980223633069207
42630746 31 18341893026251990796
46194498 28 17531249495308006709
465052 167 18342462534140925783
474 4 18126564750224870688
5104073 3 18339643343424822625
5281201 14 18040434378108529413
573450 72 17203611476061435011
602551 16 15051441769301100109
77492 1 17775571965848046505
7970288 3 18266457603160356258
8272917 22 18412266159332382645
9709674 26 18188495786689594355
9981440 41 17334760372181838777

>  <PUBCHEM_SHAPE_MULTIPOLES>  (5) 
382.24
10.82
2.18
0.93
8.91
0.34
-0.06
-3.88
0.02
-3.74
0.09
1.12
-0.04
0.02

>  <PUBCHEM_SHAPE_SELFOVERLAP>  (5) 
848.778

>  <PUBCHEM_SHAPE_VOLUME>  (5) 
203.4

>  <PUBCHEM_COORDINATE_TYPE>  (5) 
2
5
10

$$$$
440735
     RDKit          3D

 33 35  0  0  1  0  0  0  0  0999 V2000
    0.2555   -0.7760   -0.0263 O   0  0  0  0  0  0  0  0  0  0  0  0
    1.9959    2.9376   -0.1320 O   0  0  0  0  0  0  0  0  0  0  0  0
    4.3528    1.8339   -0.0344 O   0  0  0  0  0  0  0  0  0  0  0  0
    4.4895   -2.9112   -0.0250 O   0  0  0  0  0  0  0  0  0  0  0  0
   -4.4857   -0.3549   -2.1191 O   0  0  0  0  0  0  0  0  0  0  0  0
   -6.0057   -0.5257    0.2012 O   0  0  0  0  0  0  0  0  0  0  0  0
   -0.4206    0.3672    0.5202 C   0  0  1  0  0  0  0  0  0  0  0  0
   -0.0226    1.6438   -0.2179 C   0  0  0  0  0  0  0  0  0  0  0  0
   -1.9131    0.1281    0.4318 C   0  0  0  0  0  0  0  0  0  0  0  0
    2.2725    0.5948   -0.0358 C   0  0  0  0  0  0  0  0  0  0  0  0
    1.4680    1.8321   -0.1063 C   0  0  0  0  0  0  0  0  0  0  0  0
    1.6199   -0.6415   -0.0223 C   0  0  0  0  0  0  0  0  0  0  0  0
    3.6682    0.6563   -0.0264 C   0  0  0  0  0  0  0  0  0  0  0  0
   -2.5242   -0.0067   -0.8144 C   0  0  0  0  0  0  0  0  0  0  0  0
   -2.6756    0.0434    1.5964 C   0  0  0  0  0  0  0  0  0  0  0  0
    2.3668   -1.8202   -0.0335 C   0  0  0  0  0  0  0  0  0  0  0  0
    4.4095   -0.5258   -0.0170 C   0  0  0  0  0  0  0  0  0  0  0  0
    3.7608   -1.7611   -0.0255 C   0  0  0  0  0  0  0  0  0  0  0  0
   -3.8991   -0.2265   -0.8963 C   0  0  0  0  0  0  0  0  0  0  0  0
   -4.0506   -0.1764    1.5144 C   0  0  0  0  0  0  0  0  0  0  0  0
   -4.6623   -0.3113    0.2682 C   0  0  0  0  0  0  0  0  0  0  0  0
    5.3428    1.8310   -0.0272 H   0  0  0  0  0  0  0  0  0  0  0  0
    5.4786   -2.8705   -0.0193 H   0  0  0  0  0  0  0  0  0  0  0  0
   -5.4610   -0.5111   -2.1863 H   0  0  0  0  0  0  0  0  0  0  0  0
   -6.5397   -0.5845    1.0328 H   0  0  0  0  0  0  0  0  0  0  0  0
   -0.1303    0.5020    1.5726 H   0  0  0  0  0  0  0  0  0  0  0  0
   -0.3052    1.5601   -1.2777 H   0  0  0  0  0  0  0  0  0  0  0  0
   -0.5399    2.5064    0.2273 H   0  0  0  0  0  0  0  0  0  0  0  0
   -1.9221    0.0603   -1.7325 H   0  0  0  0  0  0  0  0  0  0  0  0
   -2.1930    0.1499    2.5791 H   0  0  0  0  0  0  0  0  0  0  0  0
    1.8571   -2.7949   -0.0486 H   0  0  0  0  0  0  0  0  0  0  0  0
    5.5086   -0.4837   -0.0028 H   0  0  0  0  0  0  0  0  0  0  0  0
   -4.6526   -0.2434    2.4326 H   0  0  0  0  0  0  0  0  0  0  0  0
  1  7  1  0
  1 12  1  0
  2 11  2  0
  3 13  1  0
  4 18  1  0
  5 19  1  0
  6 21  1  0
  7  8  1  0
  7  9  1  0
  8 11  1  0
  9 14  2  0
  9 15  1  0
 10 11  1  0
 10 12  1  0
 10 13  2  0
 12 16  2  0
 13 17  1  0
 14 19  1  0
 15 20  2  0
 16 18  1  0
 17 18  2  0
 19 21  2  0
 20 21  1  0
  3 22  1  0
  4 23  1  0
  5 24  1  0
  6 25  1  0
  7 26  1  1
  8 27  1  0
  8 28  1  0
 14 29  1  0
 15 30  1  0
 16 31  1  0
 17 32  1  0
 20 33  1  0
M  END
>  <PUBCHEM_COMPOUND_CID>  (6) 
440735

>  <PUBCHEM_CONFORMER_RMSD>  (6) 
0.6

>  <PUBCHEM_CONFORMER_DIVERSEORDER>  (6) 
1
5
3
12
6
8
9
2
7
11
4
10

>  <PUBCHEM_MMFF94_PARTIAL_CHARGES>  (6) 
30
1 -0.36
10 0.09
11 0.42
12 0.08
13 0.08
14 -0.15
15 -0.15
16 -0.15
17 -0.15
18 0.08
19 0.08
2 -0.57
20 -0.15
21 0.08
25 0.15
26 0.15
27 0.15
28 0.15
29 0.15
3 -0.53
30 0.45
31 0.45
32 0.45
33 0.45
4 -0.53
5 -0.53
6 -0.53
7 0.42
8 0.06
9 -0.14

>  <PUBCHEM_EFFECTIVE_ROTOR_COUNT>  (6) 
1.6

>  <PUBCHEM_PHARMACOPHORE_FEATURES>  (6) 
9
1 1 acceptor
1 2 acceptor
1 3 donor
1 4 donor
1 5 donor
1 6 donor
6 1 7 8 10 11 12 rings
6 10 12 13 16 17 18 rings
6 9 14 15 19 20 21 rings

>  <PUBCHEM_HEAVY_ATOM_COUNT>  (6) 
21

>  <PUBCHEM_ATOM_DEF_STEREO_COUNT>  (6) 
1

>  <PUBCHEM_ATOM_UDEF_STEREO_COUNT>  (6) 
0

>  <PUBCHEM_BOND_DEF_STEREO_COUNT>  (6) 
0

>  <PUBCHEM_BOND_UDEF_STEREO_COUNT>  (6) 
0

>  <PUBCHEM_ISOTOPIC_ATOM_COUNT>  (6) 
0

>  <PUBCHEM_COMPONENT_COUNT>  (6) 
1

>  <PUBCHEM_CACTVS_TAUTO_COUNT>  (6) 
210

>  <PUBCHEM_CONFORMER_ID>  (6) 
0006B99F00000001

>  <PUBCHEM_MMFF94_ENERGY>  (6) 
59.3348

>  <PUBCHEM_FEATURE_SELFOVERLAP>  (6) 
45.706

>  <PUBCHEM_SHAPE_FINGERPRINT>  (6) 
10411042 1 18193840345656972458
10622 236 17915994985135910311
10912923 1 17704075100980585555
11471102 20 18408887360437875824
11796584 16 16443339837330519890
12107183 9 17839475392528231841
12236239 1 17846502547698529897
12403259 415 17603302657366984853
12553582 1 18339931424372457054
12616971 3 18131069316493766895
13134695 92 18410012139237220932
13140716 1 18123470755117485464
13167823 11 18060421313415870895
13533116 47 18272370884310252635
13544653 18 18335707096160682412
13760787 5 18342737412189807143
13862211 1 18337954490039983666
14386348 63 17749112205529776673
15196674 1 18337955597286782848
15788980 27 18343580716259964887
15848702 151 18412266108008994151
15961568 22 15936981875881220316
17349148 13 17988926669305114007
17357779 13 18114174216278649605
1813 80 18199764560881650630
18222031 100 18270960146673261878
200 152 18343863312365636145
20028762 73 18202280269220032478
20645477 70 18334294270932086002
21033648 29 17822561789984333989
21065201 7 16370725937299973755
21267235 1 18340495478264387710
21641784 216 17969243169744018604
221357 26 18260822679688181229
221490 88 18262807400612090035
22224240 67 18200583826737816768
22646028 1 17989486320802545827
23175994 123 18040722459093184965
23402539 116 18340206263213232338
23557571 272 16950561095136951597
23559900 14 17167860829567015978
23596394 208 17967245377883822595
2871803 45 18114182991128709714
314194 84 18342455937034105566
33824 294 18408885157446479880
345986 75 18058727992668531098
34797466 226 16588320391995792254
46194498 28 17458911547401313933
474 4 18126846225370418952
5104073 3 18340491066778990265
5281201 14 17822012003736182717
573450 72 17132116827560609323
602551 16 15267054895606394037
7471813 234 18060133236927129873
77492 1 17775010115379898801
7970288 3 18266178323070170050
9981440 41 17335605896518103553

>  <PUBCHEM_SHAPE_MULTIPOLES>  (6) 
396.95
11.18
2.12
1.11
6.8
0.3
0.1
-3.77
0.55
-3.9
0.11
1.88
-0.09
-0.13

>  <PUBCHEM_SHAPE_SELFOVERLAP>  (6) 
882.864

>  <PUBCHEM_SHAPE_VOLUME>  (6) 
210.9

>  <PUBCHEM_COORDINATE_TYPE>  (6) 
2
5
10

$$$$
440832
     RDKit          3D

 31 33  0  0  0  0  0  0  0  0999 V2000
    0.2336   -0.8394    0.0351 O   0  0  0  0  0  0  0  0  0  0  0  0
   -1.0322    2.6365    0.0871 O   0  0  0  0  0  0  0  0  0  0  0  0
    4.0706    2.1389   -0.0581 O   0  0  0  0  0  0  0  0  0  0  0  0
    4.6997   -2.5760    0.0129 O   0  0  0  0  0  0  0  0  0  0  0  0
   -6.1125   -0.7624   -0.0280 O   0  0  0  0  0  0  0  0  0  0  0  0
    2.1385    0.6976   -0.0097 C   0  0  0  0  0  0  0  0  0  0  0  0
    1.6208   -0.6014    0.0206 C   0  0  0  0  0  0  0  0  0  0  0  0
   -0.5701    0.1870    0.0084 C   0  0  0  0  0  0  0  0  0  0  0  0
   -2.0304   -0.0638   -0.0013 C   0  0  0  0  0  0  0  0  0  0  0  0
    1.2079    1.8207   -0.0001 C   0  0  0  0  0  0  0  0  0  0  0  0
   -0.1151    1.6135    0.0150 C   0  0  0  0  0  0  0  0  0  0  0  0
    3.5229    0.8902   -0.0316 C   0  0  0  0  0  0  0  0  0  0  0  0
    2.4805   -1.7005    0.0282 C   0  0  0  0  0  0  0  0  0  0  0  0
    3.8603   -1.5046    0.0058 C   0  0  0  0  0  0  0  0  0  0  0  0
    4.3809   -0.2109   -0.0248 C   0  0  0  0  0  0  0  0  0  0  0  0
   -2.7013   -0.1769   -1.2136 C   0  0  0  0  0  0  0  0  0  0  0  0
   -2.7161   -0.1831    1.2023 C   0  0  0  0  0  0  0  0  0  0  0  0
   -4.0761   -0.4126   -1.2226 C   0  0  0  0  0  0  0  0  0  0  0  0
   -4.0908   -0.4190    1.1934 C   0  0  0  0  0  0  0  0  0  0  0  0
   -4.7710   -0.5337   -0.0191 C   0  0  0  0  0  0  0  0  0  0  0  0
   -0.7248    3.5775    0.0911 H   0  0  0  0  0  0  0  0  0  0  0  0
    5.0545    2.2477   -0.0732 H   0  0  0  0  0  0  0  0  0  0  0  0
    5.6798   -2.4371   -0.0030 H   0  0  0  0  0  0  0  0  0  0  0  0
   -6.6057   -0.8483    0.8261 H   0  0  0  0  0  0  0  0  0  0  0  0
    1.5972    2.8495   -0.0053 H   0  0  0  0  0  0  0  0  0  0  0  0
    2.0696   -2.7206    0.0518 H   0  0  0  0  0  0  0  0  0  0  0  0
    5.4701   -0.0580   -0.0436 H   0  0  0  0  0  0  0  0  0  0  0  0
   -2.1507   -0.0810   -2.1611 H   0  0  0  0  0  0  0  0  0  0  0  0
   -2.1771   -0.0919    2.1569 H   0  0  0  0  0  0  0  0  0  0  0  0
   -4.6123   -0.5030   -2.1788 H   0  0  0  0  0  0  0  0  0  0  0  0
   -4.6386   -0.5146    2.1425 H   0  0  0  0  0  0  0  0  0  0  0  0
  1  7  1  0
  1  8  2  0
  2 11  1  0
  3 12  1  0
  4 14  1  0
  5 20  1  0
  6  7  1  0
  6 10  1  0
  6 12  2  0
  7 13  2  0
  8  9  1  0
  8 11  1  0
  9 16  1  0
  9 17  2  0
 10 11  2  0
 12 15  1  0
 13 14  1  0
 14 15  2  0
 16 18  2  0
 17 19  1  0
 18 20  1  0
 19 20  2  0
  2 21  1  0
  3 22  1  0
  4 23  1  0
  5 24  1  0
 10 25  1  0
 13 26  1  0
 15 27  1  0
 16 28  1  0
 17 29  1  0
 18 30  1  0
 19 31  1  0
M  CHG  1   1   1
M  END
>  <PUBCHEM_COMPOUND_CID>  (7) 
440832

>  <PUBCHEM_CONFORMER_RMSD>  (7) 
0.6

>  <PUBCHEM_CONFORMER_DIVERSEORDER>  (7) 
1

>  <PUBCHEM_MMFF94_PARTIAL_CHARGES>  (7) 
31
1 -0.87
10 -0.18
11 0.09
12 0.08
13 -0.15
14 0.08
15 -0.15
16 -0.15
17 -0.15
18 -0.15
19 -0.15
2 -0.53
20 0.08
21 0.15
22 0.15
23 0.15
24 0.15
25 0.15
26 0.15
27 0.15
28 0.45
29 0.45
3 -0.53
30 0.45
31 0.45
4 -0.53
5 -0.53
6 0.03
7 0.92
8 0.85
9 0.09

>  <PUBCHEM_EFFECTIVE_ROTOR_COUNT>  (7) 
1

>  <PUBCHEM_PHARMACOPHORE_FEATURES>  (7) 
7
1 2 donor
1 3 donor
1 4 donor
1 5 donor
6 1 6 7 8 10 11 rings
6 6 7 12 13 14 15 rings
6 9 16 17 18 19 20 rings

>  <PUBCHEM_HEAVY_ATOM_COUNT>  (7) 
20

>  <PUBCHEM_ATOM_DEF_STEREO_COUNT>  (7) 
0

>  <PUBCHEM_ATOM_UDEF_STEREO_COUNT>  (7) 
0

>  <PUBCHEM_BOND_DEF_STEREO_COUNT>  (7) 
0

>  <PUBCHEM_BOND_UDEF_STEREO_COUNT>  (7) 
0

>  <PUBCHEM_ISOTOPIC_ATOM_COUNT>  (7) 
0

>  <PUBCHEM_COMPONENT_COUNT>  (7) 
1

>  <PUBCHEM_CACTVS_TAUTO_COUNT>  (7) 
123

>  <PUBCHEM_CONFORMER_ID>  (7) 
0006BA0000000001

>  <PUBCHEM_MMFF94_ENERGY>  (7) 
64.1635

>  <PUBCHEM_FEATURE_SELFOVERLAP>  (7) 
35.553

>  <PUBCHEM_SHAPE_FINGERPRINT>  (7) 
10912923 1 17775009011462553587
11471102 20 18409167748677038784
11796584 16 17240481420544569243
12107183 9 17768543685485662955
12236239 1 17846501461145643955
12553582 1 18343577443357800446
13134695 92 18341610455779532125
13140716 1 17979914136049333176
13533116 47 18272369793367557795
13544653 18 18335424555900252589
13760787 5 18342454850565180751
13862211 1 18409728418240748554
13955234 65 18340482361581705944
14386348 63 17894914057364563531
14576447 43 18057310893810487135
15196674 1 18410575050330078089
15375358 24 18040714809249801361
15375462 189 18131351929336143784
15961568 22 16009317633729255332
16945 1 18410855503653127024
17357779 13 18260536819185890613
17492 89 18196088850708736206
17844677 252 18335987497527652437
1813 80 18271258139624578164
18186145 218 17458345212702309472
19784866 140 18187362086984764755
200 152 18342172254728573675
20028762 73 18272928298014952126
20281475 54 18273490186830765239
20645477 70 18408037407779475294
21065201 7 16587738728954076179
21267235 1 18412269411092286358
221357 26 18261383447924706301
221490 88 18336547110586721260
23175994 123 18114185241944890821
23402539 116 18340484465482794607
23559900 14 17603871100446616138
25147074 1 18268445563622898672
26918003 58 18113899372588674627
2871803 45 18187082823858124178
312423 11 18339655438379638508
314194 84 18343580776453278247
33824 294 18408320012675222954
345986 75 18059571322276702426
34797466 226 16588034531994622479
34934 24 18268706280842806454
42630746 31 18413107295055907464
46194498 28 17531806986706277821
465052 167 18343306976282523479
474 4 17771053084442772600
5104073 3 18339920416118116080
5281201 14 17894911819312127852
5283173 99 18042677322042983325
573450 72 17203891860000485811
602551 16 15195276581727172325
9709674 26 18335141973038140416

>  <PUBCHEM_SHAPE_MULTIPOLES>  (7) 
382.24
10.91
2.07
0.91
5.55
0.52
0.01
-4.41
0.13
-2.71
-0.02
1.07
-0.09
-0.05

>  <PUBCHEM_SHAPE_SELFOVERLAP>  (7) 
852.11

>  <PUBCHEM_SHAPE_VOLUME>  (7) 
201.8

>  <PUBCHEM_COORDINATE_TYPE>  (7) 
2
5
10

$$$$
441773
     RDKit          3D

 35 37  0  0  0  0  0  0  0  0999 V2000
    0.7106   -0.8454   -0.1092 O   0  0  0  0  0  0  0  0  0  0  0  0
   -0.5672    2.6215   -0.2935 O   0  0  0  0  0  0  0  0  0  0  0  0
    4.5266    2.1550    0.0849 O   0  0  0  0  0  0  0  0  0  0  0  0
   -4.4904   -0.5072    1.7115 O   0  0  0  0  0  0  0  0  0  0  0  0
    5.1633   -2.5509    0.3677 O   0  0  0  0  0  0  0  0  0  0  0  0
   -5.5966   -0.8193   -0.8185 O   0  0  0  0  0  0  0  0  0  0  0  0
    2.6047    0.7026   -0.0132 C   0  0  0  0  0  0  0  0  0  0  0  0
   -0.0903    0.1740   -0.2481 C   0  0  0  0  0  0  0  0  0  0  0  0
    2.0915   -0.5985    0.0067 C   0  0  0  0  0  0  0  0  0  0  0  0
   -1.5414   -0.0870   -0.3949 C   0  0  0  0  0  0  0  0  0  0  0  0
    0.3564    1.6031   -0.2416 C   0  0  0  0  0  0  0  0  0  0  0  0
    1.6736    1.8190   -0.1317 C   0  0  0  0  0  0  0  0  0  0  0  0
    3.9837    0.9040    0.0965 C   0  0  0  0  0  0  0  0  0  0  0  0
    2.9503   -1.6907    0.1346 C   0  0  0  0  0  0  0  0  0  0  0  0
   -2.3432   -0.1745    0.7375 C   0  0  0  0  0  0  0  0  0  0  0  0
   -2.0874   -0.2426   -1.6640 C   0  0  0  0  0  0  0  0  0  0  0  0
    4.3248   -1.4861    0.2432 C   0  0  0  0  0  0  0  0  0  0  0  0
    4.8409   -0.1904    0.2235 C   0  0  0  0  0  0  0  0  0  0  0  0
   -3.7090   -0.4208    0.5991 C   0  0  0  0  0  0  0  0  0  0  0  0
   -3.4533   -0.4890   -1.8023 C   0  0  0  0  0  0  0  0  0  0  0  0
   -4.2642   -0.5782   -0.6709 C   0  0  0  0  0  0  0  0  0  0  0  0
   -5.0833    0.7014    2.1827 C   0  0  0  0  0  0  0  0  0  0  0  0
   -0.2652    3.5643   -0.2889 H   0  0  0  0  0  0  0  0  0  0  0  0
    5.5067    2.2700    0.1642 H   0  0  0  0  0  0  0  0  0  0  0  0
    6.1396   -2.4058    0.4448 H   0  0  0  0  0  0  0  0  0  0  0  0
   -5.9824   -0.9297   -1.7235 H   0  0  0  0  0  0  0  0  0  0  0  0
    2.0575    2.8498   -0.1308 H   0  0  0  0  0  0  0  0  0  0  0  0
    2.5430   -2.7124    0.1497 H   0  0  0  0  0  0  0  0  0  0  0  0
   -1.9026   -0.0501    1.7377 H   0  0  0  0  0  0  0  0  0  0  0  0
   -1.4455   -0.1718   -2.5545 H   0  0  0  0  0  0  0  0  0  0  0  0
    5.9259   -0.0306    0.3082 H   0  0  0  0  0  0  0  0  0  0  0  0
   -3.8911   -0.6130   -2.8038 H   0  0  0  0  0  0  0  0  0  0  0  0
   -5.0848    0.7045    3.2827 H   0  0  0  0  0  0  0  0  0  0  0  0
   -4.5048    1.5615    1.8144 H   0  0  0  0  0  0  0  0  0  0  0  0
   -6.1175    0.7703    1.8144 H   0  0  0  0  0  0  0  0  0  0  0  0
  1  8  2  0
  1  9  1  0
  2 11  1  0
  3 13  1  0
  4 19  1  0
  4 22  1  0
  5 17  1  0
  6 21  1  0
  7  9  1  0
  7 12  1  0
  7 13  2  0
  8 10  1  0
  8 11  1  0
  9 14  2  0
 10 15  2  0
 10 16  1  0
 11 12  2  0
 13 18  1  0
 14 17  1  0
 15 19  1  0
 16 20  2  0
 17 18  2  0
 19 21  2  0
 20 21  1  0
  2 23  1  0
  3 24  1  0
  5 25  1  0
  6 26  1  0
 12 27  1  0
 14 28  1  0
 15 29  1  0
 16 30  1  0
 18 31  1  0
 20 32  1  0
 22 33  1  0
 22 34  1  0
 22 35  1  0
M  CHG  1   1   1
M  END
>  <PUBCHEM_COMPOUND_CID>  (8) 
441773

>  <PUBCHEM_CONFORMER_RMSD>  (8) 
0.6

>  <PUBCHEM_CONFORMER_DIVERSEORDER>  (8) 
1
3
2

>  <PUBCHEM_MMFF94_PARTIAL_CHARGES>  (8) 
32
1 -0.87
10 0.09
11 0.09
12 -0.18
13 0.08
14 -0.15
15 -0.15
16 -0.15
17 0.08
18 -0.15
19 0.08
2 -0.53
20 -0.15
21 0.08
22 0.28
23 0.15
24 0.15
25 0.15
26 0.15
27 0.15
28 0.15
29 0.45
3 -0.53
30 0.45
31 0.45
32 0.45
4 -0.36
5 -0.53
6 -0.53
7 0.03
8 0.85
9 0.92

>  <PUBCHEM_EFFECTIVE_ROTOR_COUNT>  (8) 
2

>  <PUBCHEM_PHARMACOPHORE_FEATURES>  (8) 
8
1 2 donor
1 3 donor
1 4 acceptor
1 5 donor
1 6 donor
6 1 7 8 9 11 12 rings
6 10 15 16 19 20 21 rings
6 7 9 13 14 17 18 rings

>  <PUBCHEM_HEAVY_ATOM_COUNT>  (8) 
22

>  <PUBCHEM_ATOM_DEF_STEREO_COUNT>  (8) 
0

>  <PUBCHEM_ATOM_UDEF_STEREO_COUNT>  (8) 
0

>  <PUBCHEM_BOND_DEF_STEREO_COUNT>  (8) 
0

>  <PUBCHEM_BOND_UDEF_STEREO_COUNT>  (8) 
0

>  <PUBCHEM_ISOTOPIC_ATOM_COUNT>  (8) 
0

>  <PUBCHEM_COMPONENT_COUNT>  (8) 
1

>  <PUBCHEM_CACTVS_TAUTO_COUNT>  (8) 
183

>  <PUBCHEM_CONFORMER_ID>  (8) 
0006BDAD00000001

>  <PUBCHEM_MMFF94_ENERGY>  (8) 
80.5779

>  <PUBCHEM_FEATURE_SELFOVERLAP>  (8) 
40.627

>  <PUBCHEM_SHAPE_FINGERPRINT>  (8) 
10912923 1 17989205975170209907
11370993 144 18260277347542570843
11552529 35 18054231200596849499
11796584 16 16732695039135547138
12107183 9 17555749711141526987
12236239 1 17917428757066726999
12422481 6 17916032252339185533
12553582 1 18412262826938842830
12596602 18 17275384330673487034
12616971 3 18273497853547985026
12670546 56 17775000219511641289
12760667 363 18263359205362742050
13140716 1 17978505666112669072
13544653 18 18333731307988202948
13760787 5 18412824694291369756
14251732 14 14563111229060832251
14294032 229 16558204735480552657
14386348 63 17748823038224551159
14739800 52 16485830592908374440
14790565 3 17759532453510812500
15196674 1 18410005507844496236
15475509 84 17986682476090020768
15788980 27 18409444774004217007
17844677 252 18334575724270534124
17980427 23 17060622213847420145
1813 80 18341623589768061076
18785283 64 17461171120863698924
19078846 21 17346881156363918632
193927 3 18261395482233262594
200 152 18341321236754643191
20645477 70 18334846217459038806
20739085 24 18338531771666100100
21033648 29 17896021261178832397
21065198 48 18059859484506734857
21065201 7 16153696596904926590
21267235 1 18411700963849738606
212916 134 15913332364404711455
23175994 123 18040714775296478893
23557571 272 16878211000714365708
23559900 14 16877662361729266966
239999 70 17603584149676428618
2871803 45 18114175307574563858
312423 11 18337117761485141164
3411729 13 15768347587464821384
341906 21 15769783437564886379
345986 75 18129655297353673850
34797466 226 16443351983039226638
474 4 17841421832920691448
5104073 3 18202565094222890963
5281201 14 17822006502136193324
542803 24 17632300102721073027
573450 72 17275383218260944271
7064713 232 17275098414521367422
7495541 125 16515687792199983108

>  <PUBCHEM_SHAPE_MULTIPOLES>  (8) 
417.53
12.12
1.98
1.34
1.92
0.52
-0.2
-3.54
-2.91
-2.74
-0.03
2.74
-0.05
-1.04

>  <PUBCHEM_SHAPE_SELFOVERLAP>  (8) 
924.283

>  <PUBCHEM_SHAPE_VOLUME>  (8) 
222.2

>  <PUBCHEM_COORDINATE_TYPE>  (8) 
2
5
10

$$$$
441774
     RDKit          3D

 36 38  0  0  0  0  0  0  0  0999 V2000
    0.8756   -0.8168    0.1308 O   0  0  0  0  0  0  0  0  0  0  0  0
   -0.3739    2.5840   -0.6176 O   0  0  0  0  0  0  0  0  0  0  0  0
   -4.2322   -0.0607    2.0848 O   0  0  0  0  0  0  0  0  0  0  0  0
    4.7268    2.1000   -0.3813 O   0  0  0  0  0  0  0  0  0  0  0  0
   -3.9466   -1.0546   -2.5914 O   0  0  0  0  0  0  0  0  0  0  0  0
    5.3278   -2.4903    0.7138 O   0  0  0  0  0  0  0  0  0  0  0  0
   -5.4592   -0.8005   -0.2854 O   0  0  0  0  0  0  0  0  0  0  0  0
    0.0796    0.1758   -0.1543 C   0  0  0  0  0  0  0  0  0  0  0  0
    2.7878    0.6887   -0.1343 C   0  0  0  0  0  0  0  0  0  0  0  0
   -1.3792   -0.0808   -0.1892 C   0  0  0  0  0  0  0  0  0  0  0  0
    2.2628   -0.5782    0.1409 C   0  0  0  0  0  0  0  0  0  0  0  0
    0.5408    1.5746   -0.4236 C   0  0  0  0  0  0  0  0  0  0  0  0
    1.8637    1.7826   -0.4111 C   0  0  0  0  0  0  0  0  0  0  0  0
    4.1724    0.8814   -0.1220 C   0  0  0  0  0  0  0  0  0  0  0  0
   -2.1290    0.0507    0.9742 C   0  0  0  0  0  0  0  0  0  0  0  0
   -1.9850   -0.4509   -1.3847 C   0  0  0  0  0  0  0  0  0  0  0  0
    3.1154   -1.6455    0.4256 C   0  0  0  0  0  0  0  0  0  0  0  0
   -3.5025   -0.1909    0.9417 C   0  0  0  0  0  0  0  0  0  0  0  0
   -3.3583   -0.6926   -1.4171 C   0  0  0  0  0  0  0  0  0  0  0  0
    4.4954   -1.4498    0.4364 C   0  0  0  0  0  0  0  0  0  0  0  0
    5.0232   -0.1882    0.1622 C   0  0  0  0  0  0  0  0  0  0  0  0
   -4.1171   -0.5625   -0.2540 C   0  0  0  0  0  0  0  0  0  0  0  0
   -4.7882    1.2244    2.3557 C   0  0  0  0  0  0  0  0  0  0  0  0
   -0.0625    3.5068   -0.7953 H   0  0  0  0  0  0  0  0  0  0  0  0
    5.7106    2.2096   -0.3662 H   0  0  0  0  0  0  0  0  0  0  0  0
   -4.9207   -1.2282   -2.6242 H   0  0  0  0  0  0  0  0  0  0  0  0
    6.3080   -2.3516    0.7215 H   0  0  0  0  0  0  0  0  0  0  0  0
   -5.8954   -1.0643   -1.1341 H   0  0  0  0  0  0  0  0  0  0  0  0
    2.2578    2.7898   -0.6119 H   0  0  0  0  0  0  0  0  0  0  0  0
   -1.6415    0.3438    1.9157 H   0  0  0  0  0  0  0  0  0  0  0  0
   -1.3842   -0.5526   -2.3005 H   0  0  0  0  0  0  0  0  0  0  0  0
    2.6988   -2.6404    0.6413 H   0  0  0  0  0  0  0  0  0  0  0  0
    6.1125   -0.0357    0.1699 H   0  0  0  0  0  0  0  0  0  0  0  0
   -4.8529    1.3740    3.4436 H   0  0  0  0  0  0  0  0  0  0  0  0
   -4.1460    2.0018    1.9162 H   0  0  0  0  0  0  0  0  0  0  0  0
   -5.7946    1.2886    1.9162 H   0  0  0  0  0  0  0  0  0  0  0  0
  1  8  2  0
  1 11  1  0
  2 12  1  0
  3 18  1  0
  3 23  1  0
  4 14  1  0
  5 19  1  0
  6 20  1  0
  7 22  1  0
  8 10  1  0
  8 12  1  0
  9 11  1  0
  9 13  1  0
  9 14  2  0
 10 15  2  0
 10 16  1  0
 11 17  2  0
 12 13  2  0
 14 21  1  0
 15 18  1  0
 16 19  2  0
 17 20  1  0
 18 22  2  0
 19 22  1  0
 20 21  2  0
  2 24  1  0
  4 25  1  0
  5 26  1  0
  6 27  1  0
  7 28  1  0
 13 29  1  0
 15 30  1  0
 16 31  1  0
 17 32  1  0
 21 33  1  0
 23 34  1  0
 23 35  1  0
 23 36  1  0
M  CHG  1   1   1
M  END
>  <PUBCHEM_COMPOUND_CID>  (9) 
441774

>  <PUBCHEM_CONFORMER_RMSD>  (9) 
0.6

>  <PUBCHEM_CONFORMER_DIVERSEORDER>  (9) 
1
2

>  <PUBCHEM_MMFF94_PARTIAL_CHARGES>  (9) 
33
1 -0.87
10 0.09
11 0.92
12 0.09
13 -0.18
14 0.08
15 -0.15
16 -0.15
17 -0.15
18 0.08
19 0.08
2 -0.53
20 0.08
21 -0.15
22 0.08
23 0.28
24 0.15
25 0.15
26 0.15
27 0.15
28 0.15
29 0.45
3 -0.36
30 0.45
31 0.45
32 0.45
33 0.45
4 -0.53
5 -0.53
6 -0.53
7 -0.53
8 0.85
9 0.03

>  <PUBCHEM_EFFECTIVE_ROTOR_COUNT>  (9) 
2

>  <PUBCHEM_PHARMACOPHORE_FEATURES>  (9) 
9
1 2 donor
1 3 acceptor
1 4 donor
1 5 donor
1 6 donor
1 7 donor
6 1 8 9 11 12 13 rings
6 10 15 16 18 19 22 rings
6 9 11 14 17 20 21 rings

>  <PUBCHEM_HEAVY_ATOM_COUNT>  (9) 
23

>  <PUBCHEM_ATOM_DEF_STEREO_COUNT>  (9) 
0

>  <PUBCHEM_ATOM_UDEF_STEREO_COUNT>  (9) 
0

>  <PUBCHEM_BOND_DEF_STEREO_COUNT>  (9) 
0

>  <PUBCHEM_BOND_UDEF_STEREO_COUNT>  (9) 
0

>  <PUBCHEM_ISOTOPIC_ATOM_COUNT>  (9) 
0

>  <PUBCHEM_COMPONENT_COUNT>  (9) 
1

>  <PUBCHEM_CACTVS_TAUTO_COUNT>  (9) 
524

>  <PUBCHEM_CONFORMER_ID>  (9) 
0006BDAE00000001

>  <PUBCHEM_MMFF94_ENERGY>  (9) 
82.7579

>  <PUBCHEM_FEATURE_SELFOVERLAP>  (9) 
45.708

>  <PUBCHEM_SHAPE_FINGERPRINT>  (9) 
10912923 1 18131632309212088930
12107183 9 17413607051099704995
12236239 1 18130788988362787167
12403259 118 14979661204922435514
12403259 415 17167865261783231314
12422481 6 18057051206949427141
12553582 1 18408888425779565454
12616971 3 18342459218673690098
12633257 1 17346600755060518784
12670546 56 17989203771794166409
13134695 92 18336260232077403220
13140716 1 17975697509188966056
13544653 18 18259704484509341396
13760787 5 18409448094230162694
13782708 43 17023194867965111643
14294032 229 16988298491241307313
14386348 63 17385722517206625483
14739800 52 16843868966718771648
15475509 84 18127984005468266680
15788980 27 18408601448422162911
17349148 13 17988358264759012383
17357779 13 18040703762678552804
17844677 252 18187083936096515452
1813 80 18339091410268107180
18785283 64 17170694438240562356
19489759 90 16128655241421038055
200 152 18410566284285665063
20511986 3 18130777945859568121
20645477 70 18187075157536893806
20739085 24 18263099767947564516
21033648 29 17531514469025887261
21065198 48 18273501182100010977
21065201 7 15430027747522910842
21267235 1 18408605834375335758
2297311 6 15285648681457862187
23175994 123 17821447967372430141
23402539 116 18410569552782287355
23557571 272 15338854087490602249
23559900 14 16081918253404357378
23569914 2 15695428886786424744
2871803 45 17895188875305476146
312423 11 18262245413443155132
3411729 13 16270501153640857936
341906 21 16271934787247433577
345986 75 18270955735804815504
34797466 226 15554172591935036928
46194498 28 17023463178407961631
5104073 3 18343587351646970827
5281201 14 17240201036636978286
573450 72 17561362889662643847
602551 16 16056592218243930734
7064713 232 17561359556879129942
7495541 125 16226053339794507908
77492 1 18059859510361019133
9849439 229 15980917012492831545

>  <PUBCHEM_SHAPE_MULTIPOLES>  (9) 
432.24
12.26
1.96
1.58
0.93
0.5
0.08
-3.06
2.81
2.15
-0.1
-3.12
-0.08
-2.36

>  <PUBCHEM_SHAPE_SELFOVERLAP>  (9) 
958.326

>  <PUBCHEM_SHAPE_VOLUME>  (9) 
229.9

>  <PUBCHEM_COORDINATE_TYPE>  (9) 
2
5
10

$$$$
445154
     RDKit          3D

 29 30  0  0  0  0  0  0  0  0999 V2000
   -4.8060   -2.1619   -0.3965 O   0  0  0  0  0  0  0  0  0  0  0  0
   -4.1010    2.4953    0.3775 O   0  0  0  0  0  0  0  0  0  0  0  0
    6.2037   -0.3631    0.0735 O   0  0  0  0  0  0  0  0  0  0  0  0
   -1.7324   -0.2540    0.0441 C   0  0  0  0  0  0  0  0  0  0  0  0
    2.1022    0.2574   -0.0662 C   0  0  0  0  0  0  0  0  0  0  0  0
   -0.2763   -0.4793    0.0741 C   0  0  0  0  0  0  0  0  0  0  0  0
    0.6650    0.4755   -0.1147 C   0  0  0  0  0  0  0  0  0  0  0  0
   -2.2240    1.0281    0.2263 C   0  0  0  0  0  0  0  0  0  0  0  0
   -2.5810   -1.3290   -0.1646 C   0  0  0  0  0  0  0  0  0  0  0  0
   -3.9593   -1.1159   -0.1919 C   0  0  0  0  0  0  0  0  0  0  0  0
   -3.6023    1.2414    0.1990 C   0  0  0  0  0  0  0  0  0  0  0  0
    2.6160   -0.8654    0.5823 C   0  0  0  0  0  0  0  0  0  0  0  0
    2.9667    1.1719   -0.6680 C   0  0  0  0  0  0  0  0  0  0  0  0
   -4.4698    0.1693   -0.0101 C   0  0  0  0  0  0  0  0  0  0  0  0
    3.9944   -1.0739    0.6292 C   0  0  0  0  0  0  0  0  0  0  0  0
    4.3451    0.9632   -0.6213 C   0  0  0  0  0  0  0  0  0  0  0  0
    4.8590   -0.1596    0.0274 C   0  0  0  0  0  0  0  0  0  0  0  0
   -5.7842   -2.0105   -0.4158 H   0  0  0  0  0  0  0  0  0  0  0  0
   -5.0792    2.6464    0.3581 H   0  0  0  0  0  0  0  0  0  0  0  0
    6.8175    0.2857   -0.3536 H   0  0  0  0  0  0  0  0  0  0  0  0
    0.0736   -1.5045    0.2650 H   0  0  0  0  0  0  0  0  0  0  0  0
    0.3149    1.4976   -0.3212 H   0  0  0  0  0  0  0  0  0  0  0  0
   -1.5347    1.8694    0.3908 H   0  0  0  0  0  0  0  0  0  0  0  0
   -2.1721   -2.3402   -0.3073 H   0  0  0  0  0  0  0  0  0  0  0  0
    1.9342   -1.5865    1.0568 H   0  0  0  0  0  0  0  0  0  0  0  0
    2.5615    2.0575   -1.1793 H   0  0  0  0  0  0  0  0  0  0  0  0
   -5.5567    0.3374   -0.0316 H   0  0  0  0  0  0  0  0  0  0  0  0
    4.3996   -1.9594    1.1408 H   0  0  0  0  0  0  0  0  0  0  0  0
    5.0269    1.6841   -1.0961 H   0  0  0  0  0  0  0  0  0  0  0  0
  1 10  1  0
  2 11  1  0
  3 17  1  0
  4  6  1  0
  4  8  1  0
  4  9  2  0
  5  7  1  0
  5 12  1  0
  5 13  2  0
  6  7  2  0
  8 11  2  0
  9 10  1  0
 10 14  2  0
 11 14  1  0
 12 15  2  0
 13 16  1  0
 15 17  1  0
 16 17  2  0
  1 18  1  0
  2 19  1  0
  3 20  1  0
  6 21  1  0
  7 22  1  0
  8 23  1  0
  9 24  1  0
 12 25  1  0
 13 26  1  0
 14 27  1  0
 15 28  1  0
 16 29  1  0
M  END
>  <PUBCHEM_COMPOUND_CID>  (10) 
445154

>  <PUBCHEM_CONFORMER_RMSD>  (10) 
0.6

>  <PUBCHEM_CONFORMER_DIVERSEORDER>  (10) 
2
1

>  <PUBCHEM_MMFF94_PARTIAL_CHARGES>  (10) 
29
1 -0.53
10 0.08
11 0.08
12 -0.15
13 -0.15
14 -0.15
15 -0.15
16 -0.15
17 0.08
18 0.15
19 0.15
2 -0.53
20 0.15
21 0.15
22 0.15
23 0.15
24 0.15
25 0.15
26 0.15
27 0.45
28 0.45
29 0.45
3 -0.53
4 0.03
5 0.03
6 -0.18
7 -0.18
8 -0.15
9 -0.15

>  <PUBCHEM_EFFECTIVE_ROTOR_COUNT>  (10) 
2

>  <PUBCHEM_PHARMACOPHORE_FEATURES>  (10) 
5
1 1 donor
1 2 donor
1 3 donor
6 4 8 9 10 11 14 rings
6 5 12 13 15 16 17 rings

>  <PUBCHEM_HEAVY_ATOM_COUNT>  (10) 
17

>  <PUBCHEM_ATOM_DEF_STEREO_COUNT>  (10) 
0

>  <PUBCHEM_ATOM_UDEF_STEREO_COUNT>  (10) 
0

>  <PUBCHEM_BOND_DEF_STEREO_COUNT>  (10) 
1

>  <PUBCHEM_BOND_UDEF_STEREO_COUNT>  (10) 
0

>  <PUBCHEM_ISOTOPIC_ATOM_COUNT>  (10) 
0

>  <PUBCHEM_COMPONENT_COUNT>  (10) 
1

>  <PUBCHEM_CACTVS_TAUTO_COUNT>  (10) 
20

>  <PUBCHEM_CONFORMER_ID>  (10) 
0006CAE200000002

>  <PUBCHEM_MMFF94_ENERGY>  (10) 
49.607

>  <PUBCHEM_FEATURE_SELFOVERLAP>  (10) 
25.373

>  <PUBCHEM_SHAPE_FINGERPRINT>  (10) 
10014705 185 18113896031716294869
10595046 47 18336547204748856716
10616163 171 18411139168604729455
10912923 1 18187081750179493368
11315181 36 18408040727672988104
12107183 9 17759799252039973274
12236239 1 18409449181189184810
12670546 56 18335415789967024916
13167823 11 18409165519488960790
13288520 33 18341894117163180047
13583140 156 17418363684266412222
13675066 3 17917988373888227614
13760787 5 17095249124728923956
14251718 22 18342739650105047618
14508225 48 18268695264937878261
14528608 73 18261398892510980172
15042514 8 18197498635496392455
15196674 1 18410012152227455220
15788980 27 18335424569011851848
17834072 33 18335421296283708566
17844677 252 18342745143141762304
18186145 218 16805040731158450208
18681886 176 18341610452132742322
19489759 90 18273493468396678499
200 152 18409728490811561187
20279233 1 16343705430420501028
20281475 54 18334286548670597554
20300324 65 18411419544506804761
20612939 158 17531251699174972428
20645477 56 18343023242838589761
20645477 70 18113333094642728002
21033648 29 16199857384941753498
21065198 48 18335136479680159738
21267235 1 18336553788659707179
21426921 1 18413670210707749065
21709351 56 18333446543356635732
22646028 1 18408039628150693958
2297311 6 18060430126488230821
2306618 200 18060146427472796449
23402539 116 18411415107288824917
23402655 69 18334859407387734340
23557571 272 18131357401076973429
23559900 14 18341321301327255049
29717793 49 18412825789666403054
300161 21 18334006181684594920
34797466 226 17559968769623523516
3545911 37 18342178830044039441
4214541 1 18410292501738007581
474 4 17387136575323497100
4990 188 18272660034662488046
5104073 3 18407759244275226768
542803 24 18342177765198079148
559249 180 18410570643915243458
573450 72 18410005520634134347
6327066 14 18045495310569268317
67856867 119 18336545040212544260
7495541 125 17774720977917645392
77779 3 18409731759423929284
9709674 26 18409738356367816490
9971528 1 17822009839695352596

>  <PUBCHEM_SHAPE_MULTIPOLES>  (10) 
332.24
12.88
1.74
0.72
5.99
0.25
0
-0.98
-0.25
-2.21
0.01
0.19
0.01
-1.17

>  <PUBCHEM_SHAPE_SELFOVERLAP>  (10) 
719.006

>  <PUBCHEM_SHAPE_VOLUME>  (10) 
182.8

>  <PUBCHEM_COORDINATE_TYPE>  (10) 
2
5
10

$$$$
5280343
     RDKit          3D

 32 34  0  0  0  0  0  0  0  0999 V2000
   -0.3256   -0.8658   -0.1246 O   0  0  0  0  0  0  0  0  0  0  0  0
    0.7320    2.6650   -0.0692 O   0  0  0  0  0  0  0  0  0  0  0  0
   -4.4111    1.7247    0.1690 O   0  0  0  0  0  0  0  0  0  0  0  0
   -2.0405    2.8247    0.0849 O   0  0  0  0  0  0  0  0  0  0  0  0
   -4.5541   -3.0185    0.0059 O   0  0  0  0  0  0  0  0  0  0  0  0
    4.7260   -0.5543    2.0391 O   0  0  0  0  0  0  0  0  0  0  0  0
    5.9621   -0.7455   -0.4423 O   0  0  0  0  0  0  0  0  0  0  0  0
   -2.3363    0.4858    0.0234 C   0  0  0  0  0  0  0  0  0  0  0  0
   -1.6894   -0.7456   -0.0524 C   0  0  0  0  0  0  0  0  0  0  0  0
    0.4417    0.2883   -0.1097 C   0  0  0  0  0  0  0  0  0  0  0  0
    1.8880    0.0180   -0.1934 C   0  0  0  0  0  0  0  0  0  0  0  0
   -0.0582    1.5360   -0.0489 C   0  0  0  0  0  0  0  0  0  0  0  0
   -1.5283    1.7149    0.0259 C   0  0  0  0  0  0  0  0  0  0  0  0
   -3.7304    0.5474    0.0939 C   0  0  0  0  0  0  0  0  0  0  0  0
   -2.4335   -1.9257   -0.0588 C   0  0  0  0  0  0  0  0  0  0  0  0
   -3.8256   -1.8685    0.0117 C   0  0  0  0  0  0  0  0  0  0  0  0
    2.6365   -0.1435    0.9728 C   0  0  0  0  0  0  0  0  0  0  0  0
   -4.4724   -0.6343    0.0880 C   0  0  0  0  0  0  0  0  0  0  0  0
    2.5093   -0.0766   -1.4389 C   0  0  0  0  0  0  0  0  0  0  0  0
    4.0054   -0.3998    0.8936 C   0  0  0  0  0  0  0  0  0  0  0  0
    3.8783   -0.3325   -1.5181 C   0  0  0  0  0  0  0  0  0  0  0  0
    4.6263   -0.4943   -0.3518 C   0  0  0  0  0  0  0  0  0  0  0  0
    0.3153    3.5618   -0.0220 H   0  0  0  0  0  0  0  0  0  0  0  0
   -5.3999    1.7225    0.2174 H   0  0  0  0  0  0  0  0  0  0  0  0
   -5.5420   -2.9789    0.0559 H   0  0  0  0  0  0  0  0  0  0  0  0
    5.6979   -0.7364    1.9917 H   0  0  0  0  0  0  0  0  0  0  0  0
    6.3944   -0.8109   -1.3305 H   0  0  0  0  0  0  0  0  0  0  0  0
   -1.9239   -2.8987   -0.1193 H   0  0  0  0  0  0  0  0  0  0  0  0
    2.1470   -0.0687    1.9551 H   0  0  0  0  0  0  0  0  0  0  0  0
   -5.5702   -0.5929    0.1436 H   0  0  0  0  0  0  0  0  0  0  0  0
    1.9195    0.0506   -2.3587 H   0  0  0  0  0  0  0  0  0  0  0  0
    4.3680   -0.4067   -2.5003 H   0  0  0  0  0  0  0  0  0  0  0  0
  1  9  1  0
  1 10  1  0
  2 12  1  0
  3 14  1  0
  4 13  2  0
  5 16  1  0
  6 20  1  0
  7 22  1  0
  8  9  1  0
  8 13  1  0
  8 14  2  0
  9 15  2  0
 10 11  1  0
 10 12  2  0
 11 17  2  0
 11 19  1  0
 12 13  1  0
 14 18  1  0
 15 16  1  0
 16 18  2  0
 17 20  1  0
 19 21  2  0
 20 22  2  0
 21 22  1  0
  2 23  1  0
  3 24  1  0
  5 25  1  0
  6 26  1  0
  7 27  1  0
 15 28  1  0
 17 29  1  0
 18 30  1  0
 19 31  1  0
 21 32  1  0
M  END
>  <PUBCHEM_COMPOUND_CID>  (11) 
5280343

>  <PUBCHEM_CONFORMER_RMSD>  (11) 
0.6

>  <PUBCHEM_CONFORMER_DIVERSEORDER>  (11) 
2
3
4
1

>  <PUBCHEM_MMFF94_PARTIAL_CHARGES>  (11) 
32
1 -0.16
10 0.05
11 0.03
12 0.09
13 0.47
14 0.08
15 -0.15
16 0.08
17 -0.15
18 -0.15
19 -0.15
2 -0.53
20 0.08
21 -0.15
22 0.08
23 0.15
24 0.15
25 0.15
26 0.15
27 0.15
28 0.45
29 0.45
3 -0.53
30 0.45
31 0.45
32 0.45
4 -0.57
5 -0.53
6 -0.53
7 -0.53
8 0.09
9 0.08

>  <PUBCHEM_EFFECTIVE_ROTOR_COUNT>  (11) 
1

>  <PUBCHEM_PHARMACOPHORE_FEATURES>  (11) 
10
1 1 acceptor
1 2 donor
1 3 donor
1 4 acceptor
1 5 donor
1 6 donor
1 7 donor
6 1 8 9 10 12 13 rings
6 11 17 19 20 21 22 rings
6 8 9 14 15 16 18 rings

>  <PUBCHEM_HEAVY_ATOM_COUNT>  (11) 
22

>  <PUBCHEM_ATOM_DEF_STEREO_COUNT>  (11) 
0

>  <PUBCHEM_ATOM_UDEF_STEREO_COUNT>  (11) 
0

>  <PUBCHEM_BOND_DEF_STEREO_COUNT>  (11) 
0

>  <PUBCHEM_BOND_UDEF_STEREO_COUNT>  (11) 
0

>  <PUBCHEM_ISOTOPIC_ATOM_COUNT>  (11) 
0

>  <PUBCHEM_COMPONENT_COUNT>  (11) 
1

>  <PUBCHEM_CACTVS_TAUTO_COUNT>  (11) 
435

>  <PUBCHEM_CONFORMER_ID>  (11) 
0050925700000002

>  <PUBCHEM_MMFF94_ENERGY>  (11) 
67.9013

>  <PUBCHEM_FEATURE_SELFOVERLAP>  (11) 
50.781

>  <PUBCHEM_SHAPE_FINGERPRINT>  (11) 
10062212 137 18187366532376097179
10319926 262 18198887155530876618
10411042 1 18267306624464364199
10616163 171 18411422791027885687
11045977 3 17988636389587437640
11046707 91 18409731781088721831
11132069 177 18342179934140791333
11370993 144 16773248296511877579
11552529 35 14260485002790182821
12107183 9 17540809500193799274
12236239 1 17821733810620706086
12363563 72 18339368581624426103
12553582 1 18408889555155666595
13140716 1 18340771541661452937
13288520 33 18411422821308590263
13675066 3 17775002409702089546
14386348 63 17846783983788497886
15042514 8 18410580587265310395
15099037 37 18343299271068437565
15196674 1 18411421755945834109
16752209 62 18334289868595986291
16945 1 18411422778686062261
17349148 13 17748826302436736570
17804303 29 18413671322582201833
1813 80 17458069226905034038
18186145 218 12612750207294412564
18222031 100 18270959167125326031
18681886 176 18336270124256880678
19141452 34 17775287205258622471
200 152 16660645137605500828
20028762 73 17986393510885979071
21033648 29 17131540674461138658
21065201 7 18342460283973285510
21267235 1 18337399322303363739
21728266 224 18261944198090091298
2297311 6 18342468031962295414
23366157 5 17970912403723827780
23402539 116 18410573976646049422
23557571 272 18129948871279935700
23559900 14 18200040530026961414
25147074 1 18264788703960466501
2838139 119 14691740792871930569
3004659 81 18186521037688015310
312423 11 18190191263647082733
335352 9 18410856577895734581
474 4 17096946861146042884
5104073 3 18340771541286848633
573450 72 18260825981905919954
59755656 215 18268151959405414926
602551 16 18413105061377832954
67856867 119 18188777270541336308
7495541 125 18131914871464346032
77492 1 17676776383674054532
7970288 3 18338799051639604983
9709674 26 18121220046008890539

>  <PUBCHEM_SHAPE_MULTIPOLES>  (11) 
411.66
10.99
2.34
1.06
6.01
0.56
0.11
-4.89
0.67
-3.56
0.02
1.76
-0.17
-0.17

>  <PUBCHEM_SHAPE_SELFOVERLAP>  (11) 
923.873

>  <PUBCHEM_SHAPE_VOLUME>  (11) 
216

>  <PUBCHEM_COORDINATE_TYPE>  (11) 
2
5
10

$$$$
5280443
     RDKit          3D

 30 32  0  0  0  0  0  0  0  0999 V2000
   -0.0681    0.7800   -0.0476 O   0  0  0  0  0  0  0  0  0  0  0  0
   -4.1237   -1.8702    0.1093 O   0  0  0  0  0  0  0  0  0  0  0  0
   -1.7265   -2.9343    0.1829 O   0  0  0  0  0  0  0  0  0  0  0  0
   -4.3310    2.8645   -0.1990 O   0  0  0  0  0  0  0  0  0  0  0  0
    6.2534    0.6490   -0.0391 O   0  0  0  0  0  0  0  0  0  0  0  0
   -2.0651   -0.6003    0.0351 C   0  0  0  0  0  0  0  0  0  0  0  0
   -1.4328    0.6394   -0.0429 C   0  0  0  0  0  0  0  0  0  0  0  0
    0.7138   -0.3621    0.0367 C   0  0  0  0  0  0  0  0  0  0  0  0
    2.1664   -0.0973    0.0176 C   0  0  0  0  0  0  0  0  0  0  0  0
   -1.2389   -1.8145    0.1154 C   0  0  0  0  0  0  0  0  0  0  0  0
    0.2238   -1.6099    0.1094 C   0  0  0  0  0  0  0  0  0  0  0  0
   -3.4593   -0.6835    0.0353 C   0  0  0  0  0  0  0  0  0  0  0  0
   -2.1933    1.8062   -0.1218 C   0  0  0  0  0  0  0  0  0  0  0  0
   -3.5862    1.7275   -0.1217 C   0  0  0  0  0  0  0  0  0  0  0  0
   -4.2176    0.4853   -0.0433 C   0  0  0  0  0  0  0  0  0  0  0  0
    3.0430   -1.0335   -0.5363 C   0  0  0  0  0  0  0  0  0  0  0  0
    2.6702    1.0909    0.5521 C   0  0  0  0  0  0  0  0  0  0  0  0
    4.4151   -0.7831   -0.5550 C   0  0  0  0  0  0  0  0  0  0  0  0
    4.0423    1.3414    0.5331 C   0  0  0  0  0  0  0  0  0  0  0  0
    4.9148    0.4043   -0.0203 C   0  0  0  0  0  0  0  0  0  0  0  0
   -5.1136   -1.8843    0.1065 H   0  0  0  0  0  0  0  0  0  0  0  0
   -5.3195    2.8097   -0.1990 H   0  0  0  0  0  0  0  0  0  0  0  0
    6.6079    1.4918    0.3405 H   0  0  0  0  0  0  0  0  0  0  0  0
    0.9052   -2.4717    0.1640 H   0  0  0  0  0  0  0  0  0  0  0  0
   -1.6962    2.7855   -0.1839 H   0  0  0  0  0  0  0  0  0  0  0  0
   -5.3161    0.4274   -0.0435 H   0  0  0  0  0  0  0  0  0  0  0  0
    2.6503   -1.9702   -0.9586 H   0  0  0  0  0  0  0  0  0  0  0  0
    1.9833    1.8307    0.9890 H   0  0  0  0  0  0  0  0  0  0  0  0
    5.1031   -1.5221   -0.9915 H   0  0  0  0  0  0  0  0  0  0  0  0
    4.4363    2.2780    0.9545 H   0  0  0  0  0  0  0  0  0  0  0  0
  1  7  1  0
  1  8  1  0
  2 12  1  0
  3 10  2  0
  4 14  1  0
  5 20  1  0
  6  7  1  0
  6 10  1  0
  6 12  2  0
  7 13  2  0
  8  9  1  0
  8 11  2  0
  9 16  1  0
  9 17  2  0
 10 11  1  0
 12 15  1  0
 13 14  1  0
 14 15  2  0
 16 18  2  0
 17 19  1  0
 18 20  1  0
 19 20  2  0
  2 21  1  0
  4 22  1  0
  5 23  1  0
 11 24  1  0
 13 25  1  0
 15 26  1  0
 16 27  1  0
 17 28  1  0
 18 29  1  0
 19 30  1  0
M  END
>  <PUBCHEM_COMPOUND_CID>  (12) 
5280443

>  <PUBCHEM_CONFORMER_RMSD>  (12) 
0.6

>  <PUBCHEM_CONFORMER_DIVERSEORDER>  (12) 
1

>  <PUBCHEM_MMFF94_PARTIAL_CHARGES>  (12) 
30
1 -0.16
10 0.47
11 -0.14
12 0.08
13 -0.15
14 0.08
15 -0.15
16 -0.15
17 -0.15
18 -0.15
19 -0.15
2 -0.53
20 0.08
21 0.15
22 0.15
23 0.15
24 0.15
25 0.15
26 0.15
27 0.15
28 0.45
29 0.45
3 -0.57
30 0.45
4 -0.53
5 -0.53
6 0.09
7 0.08
8 0.05
9 0.03

>  <PUBCHEM_EFFECTIVE_ROTOR_COUNT>  (12) 
1

>  <PUBCHEM_PHARMACOPHORE_FEATURES>  (12) 
8
1 1 acceptor
1 2 donor
1 3 acceptor
1 4 donor
1 5 donor
6 1 6 7 8 10 11 rings
6 6 7 12 13 14 15 rings
6 9 16 17 18 19 20 rings

>  <PUBCHEM_HEAVY_ATOM_COUNT>  (12) 
20

>  <PUBCHEM_ATOM_DEF_STEREO_COUNT>  (12) 
0

>  <PUBCHEM_ATOM_UDEF_STEREO_COUNT>  (12) 
0

>  <PUBCHEM_BOND_DEF_STEREO_COUNT>  (12) 
0

>  <PUBCHEM_BOND_UDEF_STEREO_COUNT>  (12) 
0

>  <PUBCHEM_ISOTOPIC_ATOM_COUNT>  (12) 
0

>  <PUBCHEM_COMPONENT_COUNT>  (12) 
1

>  <PUBCHEM_CACTVS_TAUTO_COUNT>  (12) 
57

>  <PUBCHEM_CONFORMER_ID>  (12) 
005092BB00000001

>  <PUBCHEM_MMFF94_ENERGY>  (12) 
60.7436

>  <PUBCHEM_FEATURE_SELFOVERLAP>  (12) 
40.625

>  <PUBCHEM_SHAPE_FINGERPRINT>  (12) 
10014705 185 18335983090743610973
10319926 262 18339344337187947850
10411042 1 17833271196427205891
10493431 412 18339369544277550625
10498660 4 18336260146151624709
10608611 8 18342173405853837512
10646746 165 18410292501880224548
11315181 36 17967532415338923724
12107183 9 17973996255225508682
12173636 292 18409726227717107541
12236239 1 17458341966376888130
12390115 104 18270696268119625369
12403259 415 18202279234227041088
12500047 106 18411979165633848254
13073987 5 18334573538601782738
13140716 1 17974859676764465403
13544592 145 18269848531875060550
14508225 48 18124582335750861655
14790565 3 17908712730609502257
15042514 8 18192436496683379403
15196674 1 18411138009184468990
15375358 24 18272089392275024390
17844677 252 18338524131077601056
18186145 218 18201727210401115800
200 152 17060622204808618226
20510252 161 18342459253144016673
20645477 56 18410013234284757832
20645477 70 17203058396143606462
21033648 29 18271516554985427096
21065198 57 18411699920035301594
21236236 1 18412826893710328947
21267235 1 18337116777299593123
21279426 13 18269277859449011198
21421861 104 17750502976618702298
23402539 116 18412538829647092654
23402655 69 18131067100338114972
23557571 272 18342746247148492668
23559900 14 18271807861775124550
245318 6 16448986100328701468
283562 15 18410291424461079675
2916195 48 18342730849902058064
3004659 81 18335425613612532158
335352 9 18267022748231475478
350125 39 18410298038462750009
3545911 37 18342460348455732712
4028521 119 18341892965631935697
4214541 1 18411419514231212472
474 4 16879077545412114420
495365 180 17346021334593014002
5104073 3 18410011005465809410
542803 24 17530686524359763644
559249 180 18337386046670377618
633830 44 18199743644401676445
69090 78 18272086119177836790
77779 3 18412263930592437412
9709674 26 18342463655380539086

>  <PUBCHEM_SHAPE_MULTIPOLES>  (12) 
382.24
10.96
2.41
0.66
9.09
0.24
0
-3.75
0.48
-2.84
-0.06
0.21
-0.01
0.71

>  <PUBCHEM_SHAPE_SELFOVERLAP>  (12) 
856.39

>  <PUBCHEM_SHAPE_VOLUME>  (12) 
201.3

>  <PUBCHEM_COORDINATE_TYPE>  (12) 
2
5
10

$$$$
5280805
     RDKit          3D

 73 77  0  0  1  0  0  0  0  0999 V2000
    0.9151   -0.1224    1.7544 O   0  0  0  0  0  0  0  0  0  0  0  0
    0.8004    2.5595    1.0179 O   0  0  0  0  0  0  0  0  0  0  0  0
   -1.3404    3.5102    0.6376 O   0  0  0  0  0  0  0  0  0  0  0  0
    3.0158    2.1502    3.7129 O   0  0  0  0  0  0  0  0  0  0  0  0
    4.8927    0.1836    2.7303 O   0  0  0  0  0  0  0  0  0  0  0  0
    1.1682   -2.3514    1.1129 O   0  0  0  0  0  0  0  0  0  0  0  0
    3.6097   -2.4618    2.5396 O   0  0  0  0  0  0  0  0  0  0  0  0
   -0.0283    5.4197   -1.0632 O   0  0  0  0  0  0  0  0  0  0  0  0
    0.3419    3.6182   -3.1519 O   0  0  0  0  0  0  0  0  0  0  0  0
   -1.8002    1.8138   -2.6027 O   0  0  0  0  0  0  0  0  0  0  0  0
   -1.4889   -1.5897   -1.3258 O   0  0  0  0  0  0  0  0  0  0  0  0
   -1.1239   -2.2225    2.6830 O   0  0  0  0  0  0  0  0  0  0  0  0
   -3.6961   -1.8590    2.9805 O   0  0  0  0  0  0  0  0  0  0  0  0
   -6.1692   -0.8904   -0.9552 O   0  0  0  0  0  0  0  0  0  0  0  0
    3.2656    0.3677   -3.2321 O   0  0  0  0  0  0  0  0  0  0  0  0
    3.9451   -2.0203   -4.4801 O   0  0  0  0  0  0  0  0  0  0  0  0
    1.2160    0.9028    2.7027 C   0  0  1  0  0  0  0  0  0  0  0  0
    2.7199    1.1870    2.7050 C   0  0  2  0  0  0  0  0  0  0  0  0
    3.5131   -0.0910    2.9787 C   0  0  1  0  0  0  0  0  0  0  0  0
    3.0507   -1.2336    2.0745 C   0  0  2  0  0  0  0  0  0  0  0  0
    0.5277    4.1316   -0.7940 C   0  0  1  0  0  0  0  0  0  0  0  0
    0.0765    3.7131    0.6041 C   0  0  2  0  0  0  0  0  0  0  0  0
    0.0508    3.1278   -1.8451 C   0  0  1  0  0  0  0  0  0  0  0  0
   -1.4533    2.8807   -1.7234 C   0  0  2  0  0  0  0  0  0  0  0  0
    1.5279   -1.3673    2.0821 C   0  0  1  0  0  0  0  0  0  0  0  0
    0.4085    2.1380    2.3165 C   0  0  0  0  0  0  0  0  0  0  0  0
   -1.8123    2.5152   -0.2765 C   0  0  2  0  0  0  0  0  0  0  0  0
   -3.3207    2.4023   -0.0726 C   0  0  0  0  0  0  0  0  0  0  0  0
   -0.0704   -2.0952    0.5659 C   0  0  0  0  0  0  0  0  0  0  0  0
   -0.2634   -1.8822   -0.7485 C   0  0  0  0  0  0  0  0  0  0  0  0
   -1.2373   -2.0358    1.4789 C   0  0  0  0  0  0  0  0  0  0  0  0
   -2.5374   -1.7386    0.8583 C   0  0  0  0  0  0  0  0  0  0  0  0
    0.8392   -1.9149   -1.7260 C   0  0  0  0  0  0  0  0  0  0  0  0
   -2.5948   -1.5299   -0.5178 C   0  0  0  0  0  0  0  0  0  0  0  0
   -3.6980   -1.6637    1.6325 C   0  0  0  0  0  0  0  0  0  0  0  0
   -3.8155   -1.2441   -1.1299 C   0  0  0  0  0  0  0  0  0  0  0  0
    1.5428   -0.7476   -2.0237 C   0  0  0  0  0  0  0  0  0  0  0  0
    1.1798   -3.1132   -2.3539 C   0  0  0  0  0  0  0  0  0  0  0  0
   -4.9178   -1.3783    1.0179 C   0  0  0  0  0  0  0  0  0  0  0  0
   -4.9767   -1.1688   -0.3604 C   0  0  0  0  0  0  0  0  0  0  0  0
    2.5867   -0.7787   -2.9485 C   0  0  0  0  0  0  0  0  0  0  0  0
    2.2234   -3.1442   -3.2789 C   0  0  0  0  0  0  0  0  0  0  0  0
    2.9270   -1.9769   -3.5761 C   0  0  0  0  0  0  0  0  0  0  0  0
    2.8905    1.7422    4.6062 H   0  0  0  0  0  0  0  0  0  0  0  0
    5.3706    0.2787    3.5921 H   0  0  0  0  0  0  0  0  0  0  0  0
    3.6129   -2.4689    3.5296 H   0  0  0  0  0  0  0  0  0  0  0  0
   -0.2264    5.8787   -0.2087 H   0  0  0  0  0  0  0  0  0  0  0  0
    0.8459    4.4673   -3.0810 H   0  0  0  0  0  0  0  0  0  0  0  0
   -2.0586    1.0192   -2.0716 H   0  0  0  0  0  0  0  0  0  0  0  0
   -4.5421   -1.7966    3.4909 H   0  0  0  0  0  0  0  0  0  0  0  0
   -6.9938   -0.8368   -0.4099 H   0  0  0  0  0  0  0  0  0  0  0  0
    4.0077    0.3543   -3.8872 H   0  0  0  0  0  0  0  0  0  0  0  0
    4.1797   -2.8752   -4.9207 H   0  0  0  0  0  0  0  0  0  0  0  0
    0.9456    0.5932    3.7230 H   0  0  0  0  0  0  0  0  0  0  0  0
    3.0063    1.5736    1.7158 H   0  0  0  0  0  0  0  0  0  0  0  0
    3.3535   -0.4011    4.0219 H   0  0  0  0  0  0  0  0  0  0  0  0
    3.3860   -1.0110    1.0507 H   0  0  0  0  0  0  0  0  0  0  0  0
    1.6264    4.1630   -0.8377 H   0  0  0  0  0  0  0  0  0  0  0  0
    0.2973    4.5195    1.3189 H   0  0  0  0  0  0  0  0  0  0  0  0
    0.5802    2.1786   -1.6755 H   0  0  0  0  0  0  0  0  0  0  0  0
   -2.0110    3.7893   -1.9945 H   0  0  0  0  0  0  0  0  0  0  0  0
    1.1834   -1.6645    3.0836 H   0  0  0  0  0  0  0  0  0  0  0  0
    0.6000    2.9446    3.0395 H   0  0  0  0  0  0  0  0  0  0  0  0
   -0.6647    1.8966    2.3207 H   0  0  0  0  0  0  0  0  0  0  0  0
   -1.3325    1.5442   -0.0840 H   0  0  0  0  0  0  0  0  0  0  0  0
   -3.5449    2.3855    1.0042 H   0  0  0  0  0  0  0  0  0  0  0  0
   -3.8192    3.2656   -0.5375 H   0  0  0  0  0  0  0  0  0  0  0  0
   -3.6851    1.4744   -0.5375 H   0  0  0  0  0  0  0  0  0  0  0  0
   -3.8622   -1.0786   -2.2164 H   0  0  0  0  0  0  0  0  0  0  0  0
    1.2744    0.1975   -1.5291 H   0  0  0  0  0  0  0  0  0  0  0  0
    0.6253   -4.0338   -2.1195 H   0  0  0  0  0  0  0  0  0  0  0  0
   -5.8354   -1.3183    1.6216 H   0  0  0  0  0  0  0  0  0  0  0  0
    2.4916   -4.0892   -3.7740 H   0  0  0  0  0  0  0  0  0  0  0  0
  1 17  1  0
  1 25  1  0
 22  2  1  0
  2 26  1  0
  3 22  1  0
  3 27  1  0
 18  4  1  0
 19  5  1  0
 25  6  1  0
  6 29  1  0
 20  7  1  0
 21  8  1  0
 23  9  1  0
 24 10  1  0
 11 30  1  0
 11 34  1  0
 12 31  2  0
 13 35  1  0
 14 40  1  0
 15 41  1  0
 16 43  1  0
 17 18  1  0
 17 26  1  0
 18 19  1  0
 19 20  1  0
 20 25  1  0
 21 22  1  0
 21 23  1  0
 23 24  1  0
 24 27  1  0
 27 28  1  0
 29 30  2  0
 29 31  1  0
 30 33  1  0
 31 32  1  0
 32 34  1  0
 32 35  2  0
 33 37  2  0
 33 38  1  0
 34 36  2  0
 35 39  1  0
 36 40  1  0
 37 41  1  0
 38 42  2  0
 39 40  2  0
 41 43  2  0
 42 43  1  0
  4 44  1  0
  5 45  1  0
  7 46  1  0
  8 47  1  0
  9 48  1  0
 10 49  1  0
 13 50  1  0
 14 51  1  0
 15 52  1  0
 16 53  1  0
 17 54  1  1
 18 55  1  6
 19 56  1  1
 20 57  1  6
 21 58  1  1
 22 59  1  1
 23 60  1  1
 24 61  1  6
 25 62  1  1
 26 63  1  0
 26 64  1  0
 27 65  1  1
 28 66  1  0
 28 67  1  0
 28 68  1  0
 36 69  1  0
 37 70  1  0
 38 71  1  0
 39 72  1  0
 42 73  1  0
M  END
>  <PUBCHEM_COMPOUND_CID>  (13) 
5280805

>  <PUBCHEM_CONFORMER_RMSD>  (13) 
1

>  <PUBCHEM_CONFORMER_DIVERSEORDER>  (13) 
2
131
304
489
214
100
361
262
187
266
175
227
155
104
438
41
480
336
281
477
416
321
305
347
241
149
211
389
82
464
393
111
470
206
362
424
326
327
340
418
348
456
222
465
335
441
398
7
3
351
487
112
368
48
146
466
283
315
383
447
385
433
314
115
188
400
274
95
33
437
479
26
404
473
427
14
145
271
237
449
178
332
346
275
350
379
43
325
371
282
425
380
245
455
192
109
414
320
323
4
312
343
162
290
277
317
15
483
413
128
364
226
247
298
419
74
334
458
460
260
401
47
486
161
342
1
110
378
344
318
355
461
357
204
93
57
265
235
101
299
432
5
469
388
123
140
148
242
345
215
257
278
203
122
478
205
89
157
373
150
309
164
273
359
94
221
249
297
370
440
207
97
73
243
375
55
189
269
251
68
78
67
303
300
444
294
99
360
382
285
61
253
92
165
296
258
431
45
229
21
386
44
256
369
154
468
208
34
224
352
196
459
174
202
267
139
384
381
201
20
390
87
142
126
216
231
445
270
163
58
454
80
363
410
46
301
66
197
472
319
27
436
374
50
324
366
293
276
17
12
184
485
435
415
81
76
474
307
177
354
28
107
261
212
302
286
181
287
353
63
18
244
53
367
135
125
84
411
102
488
288
417
42
313
339
228
259
166
402
171
219
333
36
170
119
108
268
51
137
239
182
218
356
310
186
79
316
341
233
209
467
72
403
236
106
405
331
6
116
391
113
422
217
35
8
91
387
156
279
311
117
255
133
322
59
289
194
172
392
428
118
56
330
225
32
114
70
358
144
250
52
130
134
105
49
179
439
37
490
85
29
263
434
38
280
210
248
120
158
62
193
190
442
396
13
183
9
11
160
471
394
406
349
138
124
448
408
450
429
129
232
191
291
463
103
90
199
264
121
284
475
407
83
64
292
54
69
141
399
65
136
31
98
86
40
75
397
238
19
39
223
77
143
338
337
240
443
484
376
127
423
10
453
426
96
395
272
430
24
412
230
482
168
88
246
481
409
195
220
132
198
377
185
372
176
452
153
22
252
254
147
173
200
152
462
328
30
308
476
23
25
16
295
169
446
234
159
213
421
71
306
451
420
151
60
180
329
457
365
167

>  <PUBCHEM_MMFF94_PARTIAL_CHARGES>  (13) 
57
1 -0.56
10 -0.68
11 -0.16
12 -0.57
13 -0.53
14 -0.53
15 -0.53
16 -0.53
17 0.28
18 0.28
19 0.28
2 -0.56
20 0.28
21 0.28
22 0.56
23 0.28
24 0.28
25 0.56
26 0.28
27 0.28
29 0.09
3 -0.56
30 0.05
31 0.47
32 0.09
33 0.03
34 0.08
35 0.08
36 -0.15
37 -0.15
38 -0.15
39 -0.15
4 -0.68
40 0.08
41 0.08
42 -0.15
43 0.08
5 -0.68
59 0.4
6 -0.36
60 0.4
61 0.4
62 0.4
63 0.4
64 0.4
65 0.15
66 0.15
67 0.15
68 0.15
69 0.15
7 -0.68
70 0.45
71 0.45
72 0.45
73 0.45
8 -0.68
9 -0.68

>  <PUBCHEM_EFFECTIVE_ROTOR_COUNT>  (13) 
8.4

>  <PUBCHEM_PHARMACOPHORE_FEATURES>  (13) 
27
1 1 acceptor
1 10 acceptor
1 10 donor
1 11 acceptor
1 12 acceptor
1 13 donor
1 14 donor
1 15 donor
1 16 donor
1 2 acceptor
1 3 acceptor
1 4 acceptor
1 4 donor
1 5 acceptor
1 5 donor
1 6 acceptor
1 7 acceptor
1 7 donor
1 8 acceptor
1 8 donor
1 9 acceptor
1 9 donor
6 1 17 18 19 20 25 rings
6 11 29 30 31 32 34 rings
6 3 21 22 23 24 27 rings
6 32 34 35 36 39 40 rings
6 33 37 38 41 42 43 rings

>  <PUBCHEM_HEAVY_ATOM_COUNT>  (13) 
43

>  <PUBCHEM_ATOM_DEF_STEREO_COUNT>  (13) 
10

>  <PUBCHEM_ATOM_UDEF_STEREO_COUNT>  (13) 
0

>  <PUBCHEM_BOND_DEF_STEREO_COUNT>  (13) 
0

>  <PUBCHEM_BOND_UDEF_STEREO_COUNT>  (13) 
0

>  <PUBCHEM_ISOTOPIC_ATOM_COUNT>  (13) 
0

>  <PUBCHEM_COMPONENT_COUNT>  (13) 
1

>  <PUBCHEM_CACTVS_TAUTO_COUNT>  (13) 
162

>  <PUBCHEM_CONFORMER_ID>  (13) 
0050942500000002

>  <PUBCHEM_MMFF94_ENERGY>  (13) 
136.1966

>  <PUBCHEM_FEATURE_SELFOVERLAP>  (13) 
137.204

>  <PUBCHEM_SHAPE_FINGERPRINT>  (13) 
10032420 55 16618722691837029128
11578080 2 17702109058163013238
11763715 3 18261095383836030923
12128747 34 17830706804582719010
12156800 1 18264493892630091420
12539773 59 16541837734788209111
14114207 22 16917072187542919862
15276724 80 18195220408896355960
16114785 44 17475453695688661424
18603816 31 14404615602411670896
20764821 26 18041559114480362497
25223398 141 17178842541083293593
25265897 201 16407044163570150168
3493558 16 16975116350754414899
35225 105 17325147011154151441
469060 322 17471915372670447110
46939830 39 16734080423712847612
57527358 35 16309142101817992987

>  <PUBCHEM_SHAPE_MULTIPOLES>  (13) 
791.01
7.43
5.65
4.99
6.28
5.02
0.53
-4.78
-2.04
-1.61
4.22
-5.55
-0.17
4.43

>  <PUBCHEM_SHAPE_SELFOVERLAP>  (13) 
1727.285

>  <PUBCHEM_SHAPE_VOLUME>  (13) 
423.3

>  <PUBCHEM_COORDINATE_TYPE>  (13) 
2
5
10

$$$$
5280863
     RDKit          3D

 31 33  0  0  0  0  0  0  0  0999 V2000
   -0.1128   -0.8909   -0.0017 O   0  0  0  0  0  0  0  0  0  0  0  0
    0.9956    2.6247   -0.0191 O   0  0  0  0  0  0  0  0  0  0  0  0
   -4.1670    1.7646    0.0025 O   0  0  0  0  0  0  0  0  0  0  0  0
   -1.7783    2.8281   -0.0053 O   0  0  0  0  0  0  0  0  0  0  0  0
   -4.3756   -2.9789   -0.0005 O   0  0  0  0  0  0  0  0  0  0  0  0
    6.1825   -0.8694   -0.0053 O   0  0  0  0  0  0  0  0  0  0  0  0
   -2.1071    0.4928    0.0012 C   0  0  0  0  0  0  0  0  0  0  0  0
   -1.4764   -0.7494    0.0002 C   0  0  0  0  0  0  0  0  0  0  0  0
    0.6707    0.2523    0.0098 C   0  0  0  0  0  0  0  0  0  0  0  0
   -1.2811    1.7099   -0.0003 C   0  0  0  0  0  0  0  0  0  0  0  0
    0.1879    1.5082    0.0025 C   0  0  0  0  0  0  0  0  0  0  0  0
    2.1150   -0.0408    0.0059 C   0  0  0  0  0  0  0  0  0  0  0  0
   -3.5018    0.5761    0.0019 C   0  0  0  0  0  0  0  0  0  0  0  0
   -2.2377   -1.9185   -0.0008 C   0  0  0  0  0  0  0  0  0  0  0  0
   -3.6304   -1.8396    0.0001 C   0  0  0  0  0  0  0  0  0  0  0  0
   -4.2610   -0.5947    0.0015 C   0  0  0  0  0  0  0  0  0  0  0  0
    2.8040   -0.1705    1.2120 C   0  0  0  0  0  0  0  0  0  0  0  0
    2.7935   -0.1896   -1.2039 C   0  0  0  0  0  0  0  0  0  0  0  0
    4.1709   -0.4487    1.2083 C   0  0  0  0  0  0  0  0  0  0  0  0
    4.1603   -0.4681   -1.2076 C   0  0  0  0  0  0  0  0  0  0  0  0
    4.8490   -0.5974   -0.0014 C   0  0  0  0  0  0  0  0  0  0  0  0
    0.5911    3.5283   -0.0237 H   0  0  0  0  0  0  0  0  0  0  0  0
   -5.1569    1.7778    0.0030 H   0  0  0  0  0  0  0  0  0  0  0  0
   -5.3641   -2.9238    0.0001 H   0  0  0  0  0  0  0  0  0  0  0  0
    6.6637   -0.9749   -0.8640 H   0  0  0  0  0  0  0  0  0  0  0  0
   -1.7410   -2.9000   -0.0023 H   0  0  0  0  0  0  0  0  0  0  0  0
   -5.3594   -0.5362    0.0023 H   0  0  0  0  0  0  0  0  0  0  0  0
    2.2693   -0.0534    2.1661 H   0  0  0  0  0  0  0  0  0  0  0  0
    2.2506   -0.0873   -2.1551 H   0  0  0  0  0  0  0  0  0  0  0  0
    4.7140   -0.5508    2.1594 H   0  0  0  0  0  0  0  0  0  0  0  0
    4.6951   -0.5858   -2.1616 H   0  0  0  0  0  0  0  0  0  0  0  0
  1  8  1  0
  1  9  1  0
  2 11  1  0
  3 13  1  0
  4 10  2  0
  5 15  1  0
  6 21  1  0
  7  8  1  0
  7 10  1  0
  7 13  2  0
  8 14  2  0
  9 11  2  0
  9 12  1  0
 10 11  1  0
 12 17  1  0
 12 18  2  0
 13 16  1  0
 14 15  1  0
 15 16  2  0
 17 19  2  0
 18 20  1  0
 19 21  1  0
 20 21  2  0
  2 22  1  0
  3 23  1  0
  5 24  1  0
  6 25  1  0
 14 26  1  0
 16 27  1  0
 17 28  1  0
 18 29  1  0
 19 30  1  0
 20 31  1  0
M  END
>  <PUBCHEM_COMPOUND_CID>  (14) 
5280863

>  <PUBCHEM_CONFORMER_RMSD>  (14) 
0.6

>  <PUBCHEM_CONFORMER_DIVERSEORDER>  (14) 
1

>  <PUBCHEM_MMFF94_PARTIAL_CHARGES>  (14) 
31
1 -0.16
10 0.47
11 0.09
12 0.03
13 0.08
14 -0.15
15 0.08
16 -0.15
17 -0.15
18 -0.15
19 -0.15
2 -0.53
20 -0.15
21 0.08
22 0.15
23 0.15
24 0.15
25 0.15
26 0.15
27 0.15
28 0.45
29 0.45
3 -0.53
30 0.45
31 0.45
4 -0.57
5 -0.53
6 -0.53
7 0.09
8 0.08
9 0.05

>  <PUBCHEM_EFFECTIVE_ROTOR_COUNT>  (14) 
1

>  <PUBCHEM_PHARMACOPHORE_FEATURES>  (14) 
9
1 1 acceptor
1 2 donor
1 3 donor
1 4 acceptor
1 5 donor
1 6 donor
6 1 7 8 9 10 11 rings
6 12 17 18 19 20 21 rings
6 7 8 13 14 15 16 rings

>  <PUBCHEM_HEAVY_ATOM_COUNT>  (14) 
21

>  <PUBCHEM_ATOM_DEF_STEREO_COUNT>  (14) 
0

>  <PUBCHEM_ATOM_UDEF_STEREO_COUNT>  (14) 
0

>  <PUBCHEM_BOND_DEF_STEREO_COUNT>  (14) 
0

>  <PUBCHEM_BOND_UDEF_STEREO_COUNT>  (14) 
0

>  <PUBCHEM_ISOTOPIC_ATOM_COUNT>  (14) 
0

>  <PUBCHEM_COMPONENT_COUNT>  (14) 
1

>  <PUBCHEM_CACTVS_TAUTO_COUNT>  (14) 
126

>  <PUBCHEM_CONFORMER_ID>  (14) 
0050945F00000001

>  <PUBCHEM_MMFF94_ENERGY>  (14) 
63.6634

>  <PUBCHEM_FEATURE_SELFOVERLAP>  (14) 
45.701

>  <PUBCHEM_SHAPE_FINGERPRINT>  (14) 
10062212 137 18259704501815817475
10319926 262 18198039440708472114
10411042 1 18266459996136868551
10493431 412 18054800477274442545
10616163 171 18411139112664406262
11046707 91 18409730677123910171
11370993 144 16916517955761329203
11543360 7 15719391793172269227
12107183 9 17541371342140675274
12236239 1 17749392534061481470
12363563 72 18339086002704009255
12553582 1 18335417984827221099
13140716 1 18340488962783208193
13288520 33 18410856568303811111
13675066 3 17917989503163926634
13862211 1 18411135875018635839
14386348 63 17917994953962754494
14790565 3 17907586822313171969
15042514 8 18410016533441990531
15196674 1 18410575127634143204
15536298 74 18268991053969707425
16752209 62 18261663818488179675
16945 1 18410573947008695237
17492 89 17979916334999118719
17804303 29 18413387644160661329
18222031 100 18270674402272329287
19141452 34 17846780749752405951
200 152 16588024589466838308
20028762 73 17985829461378751375
21033648 29 17203314598809963442
21065201 7 18341611465349671010
21267235 1 18408891762974708547
221490 88 18191593162225813571
2297311 6 18341902883091139510
23366157 5 17970347246368186860
23402539 116 18409726249144594518
23557571 272 18201721691948635868
23559900 14 18271250400689538198
25147074 1 18264787600074730613
2748010 2 18267295620510030677
3004659 81 18113614624936730478
312423 11 18190190164135409397
335352 9 18410291424544975637
4214541 1 18410855451569901696
474 4 17024325213363864316
5104073 3 18342177807789199753
559249 180 18261388901826549970
573450 72 18260823774456318682
59755656 215 18267868281237107870
602551 16 18412822482673668010
67856867 119 18260834856110609924
7364860 26 18054791946941650728
7495541 125 18130786776881943360
77492 1 17676211226149614980
7970288 3 18338515373228633302
8863177 126 17536044590725800739
9709674 26 18120654892652843899

>  <PUBCHEM_SHAPE_MULTIPOLES>  (14) 
396.95
10.55
2.4
0.89
7.48
0.59
0
-4.96
0.01
-3.3
-0.01
1.05
-0.1
0.01

>  <PUBCHEM_SHAPE_SELFOVERLAP>  (14) 
889.871

>  <PUBCHEM_SHAPE_VOLUME>  (14) 
208.9

>  <PUBCHEM_COORDINATE_TYPE>  (14) 
2
5
10

$$$$
5280961
     RDKit          3D

 30 32  0  0  0  0  0  0  0  0999 V2000
    1.2051    2.0344   -0.0191 O   0  0  0  0  0  0  0  0  0  0  0  0
    2.3770   -2.6680   -0.0009 O   0  0  0  0  0  0  0  0  0  0  0  0
   -0.0855   -1.8360   -0.0685 O   0  0  0  0  0  0  0  0  0  0  0  0
    5.7528    0.6696    0.0402 O   0  0  0  0  0  0  0  0  0  0  0  0
   -6.2316   -0.2771    0.0415 O   0  0  0  0  0  0  0  0  0  0  0  0
    1.7278   -0.3357   -0.0110 C   0  0  0  0  0  0  0  0  0  0  0  0
   -0.6569    0.4751   -0.0269 C   0  0  0  0  0  0  0  0  0  0  0  0
    2.1110    1.0050   -0.0063 C   0  0  0  0  0  0  0  0  0  0  0  0
    0.2923   -0.6720   -0.0338 C   0  0  0  0  0  0  0  0  0  0  0  0
   -2.1156    0.2792   -0.0089 C   0  0  0  0  0  0  0  0  0  0  0  0
    2.6957   -1.3435    0.0017 C   0  0  0  0  0  0  0  0  0  0  0  0
   -0.1296    1.7087   -0.0190 C   0  0  0  0  0  0  0  0  0  0  0  0
    3.4639    1.3457    0.0107 C   0  0  0  0  0  0  0  0  0  0  0  0
    4.0482   -1.0002    0.0194 C   0  0  0  0  0  0  0  0  0  0  0  0
    4.4317    0.3413    0.0237 C   0  0  0  0  0  0  0  0  0  0  0  0
   -2.8266    0.2009   -1.2082 C   0  0  0  0  0  0  0  0  0  0  0  0
   -2.7928    0.1698    1.2074 C   0  0  0  0  0  0  0  0  0  0  0  0
   -4.2089    0.0143   -1.1914 C   0  0  0  0  0  0  0  0  0  0  0  0
   -4.1749   -0.0169    1.2242 C   0  0  0  0  0  0  0  0  0  0  0  0
   -4.8831   -0.0945    0.0249 C   0  0  0  0  0  0  0  0  0  0  0  0
    3.0947   -3.3498    0.0085 H   0  0  0  0  0  0  0  0  0  0  0  0
    6.4399   -0.0431    0.0494 H   0  0  0  0  0  0  0  0  0  0  0  0
   -6.7101   -0.3543    0.9048 H   0  0  0  0  0  0  0  0  0  0  0  0
   -0.8408    2.5478   -0.0117 H   0  0  0  0  0  0  0  0  0  0  0  0
    3.7664    2.4033    0.0138 H   0  0  0  0  0  0  0  0  0  0  0  0
    4.8142   -1.7896    0.0300 H   0  0  0  0  0  0  0  0  0  0  0  0
   -2.2957    0.2865   -2.1678 H   0  0  0  0  0  0  0  0  0  0  0  0
   -2.2354    0.2310    2.1537 H   0  0  0  0  0  0  0  0  0  0  0  0
   -4.7672   -0.0470   -2.1372 H   0  0  0  0  0  0  0  0  0  0  0  0
   -4.7066   -0.1030    2.1833 H   0  0  0  0  0  0  0  0  0  0  0  0
  1  8  1  0
  1 12  1  0
  2 11  1  0
  3  9  2  0
  4 15  1  0
  5 20  1  0
  6  8  1  0
  6  9  1  0
  6 11  2  0
  7  9  1  0
  7 10  1  0
  7 12  2  0
  8 13  2  0
 10 16  1  0
 10 17  2  0
 11 14  1  0
 13 15  1  0
 14 15  2  0
 16 18  2  0
 17 19  1  0
 18 20  1  0
 19 20  2  0
  2 21  1  0
  4 22  1  0
  5 23  1  0
 12 24  1  0
 13 25  1  0
 14 26  1  0
 16 27  1  0
 17 28  1  0
 18 29  1  0
 19 30  1  0
M  END
>  <PUBCHEM_COMPOUND_CID>  (15) 
5280961

>  <PUBCHEM_CONFORMER_RMSD>  (15) 
0.6

>  <PUBCHEM_CONFORMER_DIVERSEORDER>  (15) 
1
2

>  <PUBCHEM_MMFF94_PARTIAL_CHARGES>  (15) 
30
1 -0.16
10 0.03
11 0.08
12 -0.07
13 -0.15
14 -0.15
15 0.08
16 -0.15
17 -0.15
18 -0.15
19 -0.15
2 -0.53
20 0.08
21 0.15
22 0.15
23 0.15
24 0.15
25 0.15
26 0.15
27 0.15
28 0.45
29 0.45
3 -0.57
30 0.45
4 -0.53
5 -0.53
6 0.09
7 -0.01
8 0.08
9 0.47

>  <PUBCHEM_EFFECTIVE_ROTOR_COUNT>  (15) 
1

>  <PUBCHEM_PHARMACOPHORE_FEATURES>  (15) 
8
1 1 acceptor
1 2 donor
1 3 acceptor
1 4 donor
1 5 donor
6 1 6 7 8 9 12 rings
6 10 16 17 18 19 20 rings
6 6 8 11 13 14 15 rings

>  <PUBCHEM_HEAVY_ATOM_COUNT>  (15) 
20

>  <PUBCHEM_ATOM_DEF_STEREO_COUNT>  (15) 
0

>  <PUBCHEM_ATOM_UDEF_STEREO_COUNT>  (15) 
0

>  <PUBCHEM_BOND_DEF_STEREO_COUNT>  (15) 
0

>  <PUBCHEM_BOND_UDEF_STEREO_COUNT>  (15) 
0

>  <PUBCHEM_ISOTOPIC_ATOM_COUNT>  (15) 
0

>  <PUBCHEM_COMPONENT_COUNT>  (15) 
1

>  <PUBCHEM_CACTVS_TAUTO_COUNT>  (15) 
24

>  <PUBCHEM_CONFORMER_ID>  (15) 
005094C100000001

>  <PUBCHEM_MMFF94_ENERGY>  (15) 
62.2288

>  <PUBCHEM_FEATURE_SELFOVERLAP>  (15) 
40.625

>  <PUBCHEM_SHAPE_FINGERPRINT>  (15) 
10 15 17968651735852241568
11471102 20 18410011039915055268
11796584 16 16298104272158585042
12011746 2 18408891737046259404
12107183 9 17481158795205446827
12236239 1 17775568632984956433
12596602 18 17346595322179823779
13140716 1 18194963165723870696
13836976 161 18334862748893370556
13862211 1 18410853231726210242
14386348 63 17894634751351534131
15196674 1 18338798901320010860
15375358 24 18040718064813932202
15375462 189 18131630071354825257
15788980 27 15936413342343465497
15961568 22 15936980763574484908
16945 1 18410855465014102696
1813 80 18271540705560145676
19489759 90 16153423943970350949
200 152 18343862212954338993
20279233 1 17821452352412486003
20645477 70 18335980874408649870
21033648 29 18114445830026487037
21065198 48 17988931015991034643
21267235 1 18339929225607664382
21641784 216 18042422273963395132
22224240 67 18342450487532548904
23402539 116 17775565342486457572
23536379 177 15841559565638082980
23557571 272 17095518474807470397
23559900 14 16950281750432500898
26918003 58 18260551134301111081
2748010 2 18121775029009032932
2871803 45 18334013852823096778
335352 9 18411139165358697628
33824 294 18408039594149944154
34797466 226 16226060980367338734
34934 24 18409725188361700594
3545911 37 18410293635509107947
4072396 5 18262223474792275538
42630746 31 18413672409272107838
4340502 62 16949999236168377650
474 4 17772457134984702568
5104073 3 18265892467099301696
542803 24 17418095416598888849
602551 16 16226338113105518851
7495541 125 17095532836967104597
77492 1 17703790323495757877

>  <PUBCHEM_SHAPE_MULTIPOLES>  (15) 
382.24
11.31
1.69
0.91
4.74
0.43
0.01
0.27
0.19
-1.88
-0.02
1.1
-0.03
0.03

>  <PUBCHEM_SHAPE_SELFOVERLAP>  (15) 
856.838

>  <PUBCHEM_SHAPE_VOLUME>  (15) 
201.4

>  <PUBCHEM_COORDINATE_TYPE>  (15) 
2
5
10

$$$$
5281654
     RDKit          3D

 35 37  0  0  0  0  0  0  0  0999 V2000
   -0.5812   -0.8939   -0.1631 O   0  0  0  0  0  0  0  0  0  0  0  0
    0.5296    2.6164   -0.3413 O   0  0  0  0  0  0  0  0  0  0  0  0
   -4.6067    1.7783    0.2138 O   0  0  0  0  0  0  0  0  0  0  0  0
    4.5824   -0.5629    1.7143 O   0  0  0  0  0  0  0  0  0  0  0  0
   -2.2281    2.8316   -0.0501 O   0  0  0  0  0  0  0  0  0  0  0  0
   -4.8278   -2.9639    0.2977 O   0  0  0  0  0  0  0  0  0  0  0  0
    5.6822   -0.8961   -0.8167 O   0  0  0  0  0  0  0  0  0  0  0  0
   -2.5610    0.4980    0.0221 C   0  0  0  0  0  0  0  0  0  0  0  0
    0.2027    0.2460   -0.2467 C   0  0  0  0  0  0  0  0  0  0  0  0
   -1.9372   -0.7467   -0.0255 C   0  0  0  0  0  0  0  0  0  0  0  0
    1.6384   -0.0531   -0.3925 C   0  0  0  0  0  0  0  0  0  0  0  0
   -0.2748    1.5037   -0.2226 C   0  0  0  0  0  0  0  0  0  0  0  0
   -1.7360    1.7115   -0.0798 C   0  0  0  0  0  0  0  0  0  0  0  0
   -3.9483    0.5871    0.1624 C   0  0  0  0  0  0  0  0  0  0  0  0
   -2.6979   -1.9125    0.0667 C   0  0  0  0  0  0  0  0  0  0  0  0
    2.4457   -0.1692    0.7394 C   0  0  0  0  0  0  0  0  0  0  0  0
    2.1911   -0.2201   -1.6626 C   0  0  0  0  0  0  0  0  0  0  0  0
   -4.0832   -1.8278    0.2072 C   0  0  0  0  0  0  0  0  0  0  0  0
   -4.7069   -0.5804    0.2551 C   0  0  0  0  0  0  0  0  0  0  0  0
    3.8046   -0.4521    0.6013 C   0  0  0  0  0  0  0  0  0  0  0  0
    3.5499   -0.5030   -1.8007 C   0  0  0  0  0  0  0  0  0  0  0  0
    4.3566   -0.6190   -0.6688 C   0  0  0  0  0  0  0  0  0  0  0  0
    5.2059    0.6281    2.1904 C   0  0  0  0  0  0  0  0  0  0  0  0
    0.1292    3.5215   -0.3175 H   0  0  0  0  0  0  0  0  0  0  0  0
   -5.5915    1.7957    0.3140 H   0  0  0  0  0  0  0  0  0  0  0  0
   -5.8110   -2.9047    0.3974 H   0  0  0  0  0  0  0  0  0  0  0  0
    6.0655   -1.0130   -1.7220 H   0  0  0  0  0  0  0  0  0  0  0  0
   -2.2066   -2.8960    0.0287 H   0  0  0  0  0  0  0  0  0  0  0  0
    2.0105   -0.0376    1.7410 H   0  0  0  0  0  0  0  0  0  0  0  0
    1.5550   -0.1286   -2.5554 H   0  0  0  0  0  0  0  0  0  0  0  0
   -5.7995   -0.5173    0.3662 H   0  0  0  0  0  0  0  0  0  0  0  0
    3.9853   -0.6346   -2.8023 H   0  0  0  0  0  0  0  0  0  0  0  0
    5.2056    0.6276    3.2904 H   0  0  0  0  0  0  0  0  0  0  0  0
    6.2422    0.6711    1.8240 H   0  0  0  0  0  0  0  0  0  0  0  0
    4.6508    1.5042    1.8240 H   0  0  0  0  0  0  0  0  0  0  0  0
  1  9  1  0
  1 10  1  0
  2 12  1  0
  3 14  1  0
  4 20  1  0
  4 23  1  0
  5 13  2  0
  6 18  1  0
  7 22  1  0
  8 10  1  0
  8 13  1  0
  8 14  2  0
  9 11  1  0
  9 12  2  0
 10 15  2  0
 11 16  2  0
 11 17  1  0
 12 13  1  0
 14 19  1  0
 15 18  1  0
 16 20  1  0
 17 21  2  0
 18 19  2  0
 20 22  2  0
 21 22  1  0
  2 24  1  0
  3 25  1  0
  6 26  1  0
  7 27  1  0
 15 28  1  0
 16 29  1  0
 17 30  1  0
 19 31  1  0
 21 32  1  0
 23 33  1  0
 23 34  1  0
 23 35  1  0
M  END
>  <PUBCHEM_COMPOUND_CID>  (16) 
5281654

>  <PUBCHEM_CONFORMER_RMSD>  (16) 
0.6

>  <PUBCHEM_CONFORMER_DIVERSEORDER>  (16) 
1
5
3
4
2
6

>  <PUBCHEM_MMFF94_PARTIAL_CHARGES>  (16) 
32
1 -0.16
10 0.08
11 0.03
12 0.09
13 0.47
14 0.08
15 -0.15
16 -0.15
17 -0.15
18 0.08
19 -0.15
2 -0.53
20 0.08
21 -0.15
22 0.08
23 0.28
24 0.15
25 0.15
26 0.15
27 0.15
28 0.15
29 0.45
3 -0.53
30 0.45
31 0.45
32 0.45
4 -0.36
5 -0.57
6 -0.53
7 -0.53
8 0.09
9 0.05

>  <PUBCHEM_EFFECTIVE_ROTOR_COUNT>  (16) 
2

>  <PUBCHEM_PHARMACOPHORE_FEATURES>  (16) 
10
1 1 acceptor
1 2 donor
1 3 donor
1 4 acceptor
1 5 acceptor
1 6 donor
1 7 donor
6 1 8 9 10 12 13 rings
6 11 16 17 20 21 22 rings
6 8 10 14 15 18 19 rings

>  <PUBCHEM_HEAVY_ATOM_COUNT>  (16) 
23

>  <PUBCHEM_ATOM_DEF_STEREO_COUNT>  (16) 
0

>  <PUBCHEM_ATOM_UDEF_STEREO_COUNT>  (16) 
0

>  <PUBCHEM_BOND_DEF_STEREO_COUNT>  (16) 
0

>  <PUBCHEM_BOND_UDEF_STEREO_COUNT>  (16) 
0

>  <PUBCHEM_ISOTOPIC_ATOM_COUNT>  (16) 
0

>  <PUBCHEM_COMPONENT_COUNT>  (16) 
1

>  <PUBCHEM_CACTVS_TAUTO_COUNT>  (16) 
174

>  <PUBCHEM_CONFORMER_ID>  (16) 
0050977600000001

>  <PUBCHEM_MMFF94_ENERGY>  (16) 
79.2051

>  <PUBCHEM_FEATURE_SELFOVERLAP>  (16) 
50.776

>  <PUBCHEM_SHAPE_FINGERPRINT>  (16) 
10062212 137 18113622287585563379
10319926 262 18269822139585817994
10912923 1 17748829630820060926
11045977 3 18059851753434025776
11370993 144 17060070194036718571
11545043 162 18200879479032149878
12236239 1 17676494921566363222
12403259 415 17847062173215408214
12553582 1 18335427884821855155
12616971 3 17022621948759430219
13140716 1 18339647836567301017
13583140 156 18057304129690565606
13675066 3 17989770003112852359
13782708 43 17846222120747224302
14386348 63 17917435298027703270
15099037 37 18342172271760775893
15196674 1 18410580625471844157
15880784 105 16630519635548229719
15961568 22 18337952406923316588
17349148 13 17385443206998959762
17804303 29 18412830192023841585
17844677 252 16773802476157885616
1813 80 17749382710959975756
18186145 218 12179842792603919972
18222031 100 18340768238198495582
18681886 176 18335150825662037830
18785283 64 17772739709720941576
19141452 34 17846503664401063959
200 152 16370444436453271268
20028762 73 18056765549377431463
20600515 1 18411980239160115549
21033648 29 17346306077354145402
21065201 7 18340491054284406198
21267235 1 18336558191713374555
21728266 224 18187917383106134411
22646028 1 17749107785829301714
2297311 6 18341344326599170286
23366157 5 17825394238932236213
23402539 116 18409451370947539359
23557571 272 18272095937768416228
23559900 14 18270692948104364902
2838139 119 14907068037669751649
3004659 81 18040720298228782630
335352 9 18409733972302641509
3411729 13 18195244653665228040
474 4 16951991646107380036
5104073 3 18267596891328301203
573450 72 18186800262006735147
59682541 52 13696686192307217867
602551 16 18411418410440623730
633830 44 14045741569256280724
67856867 119 18114467876526160340
7495541 125 17988927765149223126
77492 1 17531256019658734332
9709674 26 18120661489965261995

>  <PUBCHEM_SHAPE_MULTIPOLES>  (16) 
432.24
11.81
2.28
1.32
4.57
0.58
0.2
-4.2
2.84
-3.49
0.02
2.76
-0.07
0.86

>  <PUBCHEM_SHAPE_SELFOVERLAP>  (16) 
961.999

>  <PUBCHEM_SHAPE_VOLUME>  (16) 
229.3

>  <PUBCHEM_COORDINATE_TYPE>  (16) 
2
5
10

$$$$
5281672
     RDKit          3D

 33 35  0  0  0  0  0  0  0  0999 V2000
   -0.5112   -0.8516    0.0014 O   0  0  0  0  0  0  0  0  0  0  0  0
    0.5098    2.6902   -0.0303 O   0  0  0  0  0  0  0  0  0  0  0  0
   -4.6299    1.7027   -0.0030 O   0  0  0  0  0  0  0  0  0  0  0  0
   -2.2683    2.8249   -0.0160 O   0  0  0  0  0  0  0  0  0  0  0  0
   -4.7210   -3.0446    0.0125 O   0  0  0  0  0  0  0  0  0  0  0  0
    4.4047   -0.4639   -2.3940 O   0  0  0  0  0  0  0  0  0  0  0  0
    4.4231   -0.4021    2.3948 O   0  0  0  0  0  0  0  0  0  0  0  0
    5.7837   -0.6789   -0.0020 O   0  0  0  0  0  0  0  0  0  0  0  0
   -2.5391    0.4822   -0.0002 C   0  0  0  0  0  0  0  0  0  0  0  0
    0.2438    0.3107    0.0081 C   0  0  0  0  0  0  0  0  0  0  0  0
   -1.8779   -0.7439    0.0033 C   0  0  0  0  0  0  0  0  0  0  0  0
    1.6949    0.0535    0.0046 C   0  0  0  0  0  0  0  0  0  0  0  0
   -0.2700    1.5542   -0.0039 C   0  0  0  0  0  0  0  0  0  0  0  0
   -1.7436    1.7195   -0.0069 C   0  0  0  0  0  0  0  0  0  0  0  0
   -3.9354    0.5310    0.0007 C   0  0  0  0  0  0  0  0  0  0  0  0
   -2.6099   -1.9315    0.0071 C   0  0  0  0  0  0  0  0  0  0  0  0
    2.3867   -0.0544    1.2114 C   0  0  0  0  0  0  0  0  0  0  0  0
    2.3774   -0.0847   -1.2044 C   0  0  0  0  0  0  0  0  0  0  0  0
   -4.0042   -1.8872    0.0084 C   0  0  0  0  0  0  0  0  0  0  0  0
   -4.6654   -0.6583    0.0053 C   0  0  0  0  0  0  0  0  0  0  0  0
    3.7504   -0.3303   -1.2065 C   0  0  0  0  0  0  0  0  0  0  0  0
    3.7598   -0.2997    1.2093 C   0  0  0  0  0  0  0  0  0  0  0  0
    4.4418   -0.4378    0.0004 C   0  0  0  0  0  0  0  0  0  0  0  0
    0.0831    3.5835   -0.0382 H   0  0  0  0  0  0  0  0  0  0  0  0
   -5.6198    1.6914   -0.0022 H   0  0  0  0  0  0  0  0  0  0  0  0
   -5.7105   -3.0140    0.0134 H   0  0  0  0  0  0  0  0  0  0  0  0
    5.3791   -0.6383   -2.4054 H   0  0  0  0  0  0  0  0  0  0  0  0
    5.3977   -0.5761    2.4033 H   0  0  0  0  0  0  0  0  0  0  0  0
    6.2744   -0.7552    0.8544 H   0  0  0  0  0  0  0  0  0  0  0  0
   -2.0890   -2.9003    0.0091 H   0  0  0  0  0  0  0  0  0  0  0  0
    1.8490    0.0540    2.1649 H   0  0  0  0  0  0  0  0  0  0  0  0
    1.8325    0.0001   -2.1562 H   0  0  0  0  0  0  0  0  0  0  0  0
   -5.7650   -0.6270    0.0065 H   0  0  0  0  0  0  0  0  0  0  0  0
  1 10  1  0
  1 11  1  0
  2 13  1  0
  3 15  1  0
  4 14  2  0
  5 19  1  0
  6 21  1  0
  7 22  1  0
  8 23  1  0
  9 11  1  0
  9 14  1  0
  9 15  2  0
 10 12  1  0
 10 13  2  0
 11 16  2  0
 12 17  2  0
 12 18  1  0
 13 14  1  0
 15 20  1  0
 16 19  1  0
 17 22  1  0
 18 21  2  0
 19 20  2  0
 21 23  1  0
 22 23  2  0
  2 24  1  0
  3 25  1  0
  5 26  1  0
  6 27  1  0
  7 28  1  0
  8 29  1  0
 16 30  1  0
 17 31  1  0
 18 32  1  0
 20 33  1  0
M  END
>  <PUBCHEM_COMPOUND_CID>  (17) 
5281672

>  <PUBCHEM_CONFORMER_RMSD>  (17) 
0.6

>  <PUBCHEM_CONFORMER_DIVERSEORDER>  (17) 
1
2

>  <PUBCHEM_MMFF94_PARTIAL_CHARGES>  (17) 
33
1 -0.16
10 0.05
11 0.08
12 0.03
13 0.09
14 0.47
15 0.08
16 -0.15
17 -0.15
18 -0.15
19 0.08
2 -0.53
20 -0.15
21 0.08
22 0.08
23 0.08
24 0.15
25 0.15
26 0.15
27 0.15
28 0.45
29 0.45
3 -0.53
30 0.45
31 0.45
32 0.45
33 0.45
4 -0.57
5 -0.53
6 -0.53
7 -0.53
8 -0.53
9 0.09

>  <PUBCHEM_EFFECTIVE_ROTOR_COUNT>  (17) 
1

>  <PUBCHEM_PHARMACOPHORE_FEATURES>  (17) 
11
1 1 acceptor
1 2 donor
1 3 donor
1 4 acceptor
1 5 donor
1 6 donor
1 7 donor
1 8 donor
6 1 9 10 11 13 14 rings
6 12 17 18 21 22 23 rings
6 9 11 15 16 19 20 rings

>  <PUBCHEM_HEAVY_ATOM_COUNT>  (17) 
23

>  <PUBCHEM_ATOM_DEF_STEREO_COUNT>  (17) 
0

>  <PUBCHEM_ATOM_UDEF_STEREO_COUNT>  (17) 
0

>  <PUBCHEM_BOND_DEF_STEREO_COUNT>  (17) 
0

>  <PUBCHEM_BOND_UDEF_STEREO_COUNT>  (17) 
0

>  <PUBCHEM_ISOTOPIC_ATOM_COUNT>  (17) 
0

>  <PUBCHEM_COMPONENT_COUNT>  (17) 
1

>  <PUBCHEM_CACTVS_TAUTO_COUNT>  (17) 
516

>  <PUBCHEM_CONFORMER_ID>  (17) 
0050978800000001

>  <PUBCHEM_MMFF94_ENERGY>  (17) 
70.1388

>  <PUBCHEM_FEATURE_SELFOVERLAP>  (17) 
55.862

>  <PUBCHEM_SHAPE_FINGERPRINT>  (17) 
10062212 137 18186519908501798547
10319926 262 18198603485773097786
10411042 1 18266460000579509435
11046707 91 18409449210995564455
11370993 144 16773527585434617699
11796584 16 18126008157640724950
12236239 1 17749111063237261334
12390115 104 17913218564047082769
12553582 1 18408609184091020115
12616971 3 17240202101556732514
12788726 201 18187930517211311697
13140716 1 18339923822575807505
13675066 3 17775282789599270323
13760787 5 16805322192976049615
13782708 43 17775291521954021342
14386348 63 17846500314062399886
15196674 1 18410575132113772293
15961568 22 18337949121204808708
16752209 62 18334575737187090731
17138139 8 17533211096977537954
17349148 13 17603863386569204226
17804303 29 18413107273254302817
18222031 100 18271242845620719591
18681886 176 18335424599762399302
19141452 34 17703791465994378639
200 152 16588022390222101596
20028762 73 17985547990797208807
20511986 3 17676474034866394788
20600515 1 18341603798295601329
21033648 29 17203315693947359666
21033650 10 18045807618909597788
21065201 7 18342459192914403214
21267235 1 18336552702745150891
2297311 6 18341902891317090206
23175994 123 17275108336238329489
23366157 5 17898009285376015365
23402539 116 18409444778141026342
23557571 272 18202002080108833488
23559900 14 18271531879855649654
2838139 119 14835294130611578897
3004659 81 18113898294567882902
335352 9 18410291433272021301
474 4 16951705768799772796
5104073 3 18340488975609977913
573450 72 18259979353588934962
602551 16 18412541016144434722
67856867 119 18187931741772934700
6823239 73 18273217508654251016
7495541 125 18131631201701337944
77492 1 17676210135127746980
7970288 3 18337952419138454771
9709674 26 18120937467320452411

>  <PUBCHEM_SHAPE_MULTIPOLES>  (17) 
426.37
11.32
2.29
1.26
4.03
0.54
0
-4.76
0.04
-3.77
-0.01
2.62
-0.24
0.05

>  <PUBCHEM_SHAPE_SELFOVERLAP>  (17) 
957.962

>  <PUBCHEM_SHAPE_VOLUME>  (17) 
223.3

>  <PUBCHEM_COORDINATE_TYPE>  (17) 
2
5
10

$$$$
5317750
     RDKit          3D

 33 35  0  0  0  0  0  0  0  0999 V2000
    0.6763    2.1619    0.1980 O   0  0  0  0  0  0  0  0  0  0  0  0
    4.7209   -1.5527   -0.3738 O   0  0  0  0  0  0  0  0  0  0  0  0
   -0.3520   -1.7459   -0.3678 O   0  0  0  0  0  0  0  0  0  0  0  0
    5.3021    1.1377   -0.0058 O   0  0  0  0  0  0  0  0  0  0  0  0
   -6.5844   -0.6511    0.0651 O   0  0  0  0  0  0  0  0  0  0  0  0
    1.3572   -0.1441   -0.1327 C   0  0  0  0  0  0  0  0  0  0  0  0
   -1.0762    0.4915    0.0048 C   0  0  0  0  0  0  0  0  0  0  0  0
    1.6493    1.2067    0.0520 C   0  0  0  0  0  0  0  0  0  0  0  0
   -0.0526   -0.5742   -0.1778 C   0  0  0  0  0  0  0  0  0  0  0  0
   -2.5175    0.1930    0.0200 C   0  0  0  0  0  0  0  0  0  0  0  0
    2.3906   -1.0736   -0.2769 C   0  0  0  0  0  0  0  0  0  0  0  0
    2.9762    1.6360    0.0933 C   0  0  0  0  0  0  0  0  0  0  0  0
    3.7169   -0.6419   -0.2345 C   0  0  0  0  0  0  0  0  0  0  0  0
   -0.6330    1.7462    0.1753 C   0  0  0  0  0  0  0  0  0  0  0  0
    4.0094    0.7099   -0.0500 C   0  0  0  0  0  0  0  0  0  0  0  0
   -3.2541    0.2305   -1.1657 C   0  0  0  0  0  0  0  0  0  0  0  0
   -3.1527   -0.1292    1.2212 C   0  0  0  0  0  0  0  0  0  0  0  0
   -4.6198   -0.0528   -1.1503 C   0  0  0  0  0  0  0  0  0  0  0  0
   -4.5184   -0.4126    1.2367 C   0  0  0  0  0  0  0  0  0  0  0  0
   -5.2521   -0.3745    0.0508 C   0  0  0  0  0  0  0  0  0  0  0  0
    5.2138   -2.1608    0.8182 C   0  0  0  0  0  0  0  0  0  0  0  0
    6.0422    0.4880   -0.1065 H   0  0  0  0  0  0  0  0  0  0  0  0
   -7.0334   -0.8794    0.9174 H   0  0  0  0  0  0  0  0  0  0  0  0
    2.1600   -2.1392   -0.4230 H   0  0  0  0  0  0  0  0  0  0  0  0
    3.2069    2.7017    0.2384 H   0  0  0  0  0  0  0  0  0  0  0  0
   -1.3986    2.5242    0.3113 H   0  0  0  0  0  0  0  0  0  0  0  0
   -2.7565    0.4839   -2.1134 H   0  0  0  0  0  0  0  0  0  0  0  0
   -2.5750   -0.1596    2.1568 H   0  0  0  0  0  0  0  0  0  0  0  0
   -5.1983   -0.0225   -2.0854 H   0  0  0  0  0  0  0  0  0  0  0  0
   -5.0168   -0.6661    2.1840 H   0  0  0  0  0  0  0  0  0  0  0  0
    4.7947   -1.6437    1.6940 H   0  0  0  0  0  0  0  0  0  0  0  0
    4.9157   -3.2194    0.8401 H   0  0  0  0  0  0  0  0  0  0  0  0
    6.3112   -2.0883    0.8401 H   0  0  0  0  0  0  0  0  0  0  0  0
  1  8  1  0
  1 14  1  0
  2 13  1  0
  2 21  1  0
  3  9  2  0
  4 15  1  0
  5 20  1  0
  6  8  1  0
  6  9  1  0
  6 11  2  0
  7  9  1  0
  7 10  1  0
  7 14  2  0
  8 12  2  0
 10 16  1  0
 10 17  2  0
 11 13  1  0
 12 15  1  0
 13 15  2  0
 16 18  2  0
 17 19  1  0
 18 20  1  0
 19 20  2  0
  4 22  1  0
  5 23  1  0
 11 24  1  0
 12 25  1  0
 14 26  1  0
 16 27  1  0
 17 28  1  0
 18 29  1  0
 19 30  1  0
 21 31  1  0
 21 32  1  0
 21 33  1  0
M  END
>  <PUBCHEM_COMPOUND_CID>  (18) 
5317750

>  <PUBCHEM_CONFORMER_RMSD>  (18) 
0.6

>  <PUBCHEM_CONFORMER_DIVERSEORDER>  (18) 
1
2
3

>  <PUBCHEM_MMFF94_PARTIAL_CHARGES>  (18) 
30
1 -0.16
10 0.03
11 -0.15
12 -0.15
13 0.08
14 -0.07
15 0.08
16 -0.15
17 -0.15
18 -0.15
19 -0.15
2 -0.36
20 0.08
21 0.28
22 0.15
23 0.15
24 0.15
25 0.15
26 0.15
27 0.15
28 0.15
29 0.45
3 -0.57
33 0.45
4 -0.53
5 -0.53
6 0.09
7 -0.01
8 0.08
9 0.47

>  <PUBCHEM_EFFECTIVE_ROTOR_COUNT>  (18) 
2

>  <PUBCHEM_PHARMACOPHORE_FEATURES>  (18) 
8
1 1 acceptor
1 2 acceptor
1 3 acceptor
1 4 donor
1 5 donor
6 1 6 7 8 9 14 rings
6 10 16 17 18 19 20 rings
6 6 8 11 12 13 15 rings

>  <PUBCHEM_HEAVY_ATOM_COUNT>  (18) 
21

>  <PUBCHEM_ATOM_DEF_STEREO_COUNT>  (18) 
0

>  <PUBCHEM_ATOM_UDEF_STEREO_COUNT>  (18) 
0

>  <PUBCHEM_BOND_DEF_STEREO_COUNT>  (18) 
0

>  <PUBCHEM_BOND_UDEF_STEREO_COUNT>  (18) 
0

>  <PUBCHEM_ISOTOPIC_ATOM_COUNT>  (18) 
0

>  <PUBCHEM_COMPONENT_COUNT>  (18) 
1

>  <PUBCHEM_CACTVS_TAUTO_COUNT>  (18) 
10

>  <PUBCHEM_CONFORMER_ID>  (18) 
0051247600000001

>  <PUBCHEM_MMFF94_ENERGY>  (18) 
73.7807

>  <PUBCHEM_FEATURE_SELFOVERLAP>  (18) 
40.625

>  <PUBCHEM_SHAPE_FINGERPRINT>  (18) 
10 15 18115580582747215088
10912923 1 17561083630825683025
11471102 20 18411418427657214700
11796584 16 17022621991725045226
12107183 9 17054453751335123499
12236239 1 17632580457386520145
12616971 3 18060415824658462189
13140716 1 18270959154451537530
13533116 47 18342737403932357450
13544653 18 18408889529127523389
13685833 64 18408327696450947243
13760787 5 18342175570121696404
13862211 1 18412260606056083486
14386348 63 18113339730287526777
14573314 32 17313100834948787495
15196674 1 18411700946042219188
15788980 27 18410008827938280781
17349148 13 18131072631839150299
17844677 252 18261115149222097805
17862501 102 17775567537515094961
1813 80 18200609019966234412
19489759 90 16660360381463576101
200 152 18273494572556909289
20028762 73 18131628980486776607
20645477 70 18409166584915176366
21033648 29 18188474857235008477
21033650 10 15430878683713381732
21065201 7 17022617589663147513
21267235 1 18341055125662232614
21279426 13 18189893128260252477
21641784 216 18189071857663279660
21682296 61 18268153058917204654
2297311 6 16805045108257496205
23175994 123 18187087269518891477
23402539 116 18202279165327930125
23557571 272 17167855370447539285
23559900 14 17458347450406566522
26918003 58 18334579070445540545
2871803 45 18187364303135037872
3004659 81 18040435460925623146
3411729 13 15768630149184477880
345986 75 17988639636803915624
34797466 226 16443357489092153039
34934 24 18270112547972937556
3545911 37 18409167744883121108
4340502 62 17312817204183201410
465052 167 18411142441258662542
5104073 3 18341328882266312376
5281201 14 17967253095898037916
542803 24 17060341829375047369
602551 16 14764053606134550085

>  <PUBCHEM_SHAPE_MULTIPOLES>  (18) 
402.82
12.92
1.79
0.94
4.91
0.1
-0.05
-4.42
-0.59
-2.52
-0.18
0.91
-0.12
0

>  <PUBCHEM_SHAPE_SELFOVERLAP>  (18) 
893.815

>  <PUBCHEM_SHAPE_VOLUME>  (18) 
215.4

>  <PUBCHEM_COORDINATE_TYPE>  (18) 
2
5
10

$$$$
5391140
     RDKit          3D

 29 31  0  0  0  0  0  0  0  0999 V2000
   -0.2014    0.5756    0.1346 O   0  0  0  0  0  0  0  0  0  0  0  0
   -1.8283   -3.1211   -0.4009 O   0  0  0  0  0  0  0  0  0  0  0  0
   -4.4800    2.6268    0.2959 O   0  0  0  0  0  0  0  0  0  0  0  0
    4.4204    2.3836   -0.7105 O   0  0  0  0  0  0  0  0  0  0  0  0
   -2.1862   -0.8041   -0.1050 C   0  0  0  0  0  0  0  0  0  0  0  0
   -1.5643    0.4299    0.0777 C   0  0  0  0  0  0  0  0  0  0  0  0
    0.5899   -0.5545   -0.0042 C   0  0  0  0  0  0  0  0  0  0  0  0
    2.0395   -0.2855    0.0776 C   0  0  0  0  0  0  0  0  0  0  0  0
   -1.3501   -2.0064   -0.2429 C   0  0  0  0  0  0  0  0  0  0  0  0
    0.1103   -1.7963   -0.1782 C   0  0  0  0  0  0  0  0  0  0  0  0
   -3.5793   -0.8930   -0.1541 C   0  0  0  0  0  0  0  0  0  0  0  0
   -2.3344    1.5853    0.2131 C   0  0  0  0  0  0  0  0  0  0  0  0
    2.5529    0.9382   -0.3593 C   0  0  0  0  0  0  0  0  0  0  0  0
   -3.7261    1.5009    0.1643 C   0  0  0  0  0  0  0  0  0  0  0  0
    2.9046   -1.2547    0.5920 C   0  0  0  0  0  0  0  0  0  0  0  0
   -4.3469    0.2644   -0.0188 C   0  0  0  0  0  0  0  0  0  0  0  0
    3.9225    1.1913   -0.2823 C   0  0  0  0  0  0  0  0  0  0  0  0
    4.2741   -1.0017    0.6690 C   0  0  0  0  0  0  0  0  0  0  0  0
    4.7831    0.2213    0.2321 C   0  0  0  0  0  0  0  0  0  0  0  0
   -5.4677    2.5680    0.2614 H   0  0  0  0  0  0  0  0  0  0  0  0
    5.3926    2.5625   -0.6555 H   0  0  0  0  0  0  0  0  0  0  0  0
    0.7986   -2.6492   -0.2717 H   0  0  0  0  0  0  0  0  0  0  0  0
   -4.0676   -1.8681   -0.2983 H   0  0  0  0  0  0  0  0  0  0  0  0
   -1.8457    2.5601    0.3579 H   0  0  0  0  0  0  0  0  0  0  0  0
    1.8754    1.7040   -0.7650 H   0  0  0  0  0  0  0  0  0  0  0  0
    2.5046   -2.2196    0.9371 H   0  0  0  0  0  0  0  0  0  0  0  0
   -5.4445    0.2021   -0.0566 H   0  0  0  0  0  0  0  0  0  0  0  0
    4.9528   -1.7667    1.0743 H   0  0  0  0  0  0  0  0  0  0  0  0
    5.8631    0.4209    0.2932 H   0  0  0  0  0  0  0  0  0  0  0  0
  1  6  1  0
  1  7  1  0
  2  9  2  0
  3 14  1  0
  4 17  1  0
  5  6  1  0
  5  9  1  0
  5 11  2  0
  6 12  2  0
  7  8  1  0
  7 10  2  0
  8 13  1  0
  8 15  2  0
  9 10  1  0
 11 16  1  0
 12 14  1  0
 13 17  2  0
 14 16  2  0
 15 18  1  0
 17 19  1  0
 18 19  2  0
  3 20  1  0
  4 21  1  0
 10 22  1  0
 11 23  1  0
 12 24  1  0
 13 25  1  0
 15 26  1  0
 16 27  1  0
 18 28  1  0
 19 29  1  0
M  END
>  <PUBCHEM_COMPOUND_CID>  (19) 
5391140

>  <PUBCHEM_CONFORMER_RMSD>  (19) 
0.6

>  <PUBCHEM_CONFORMER_DIVERSEORDER>  (19) 
1
3
5
2
4
6

>  <PUBCHEM_MMFF94_PARTIAL_CHARGES>  (19) 
29
1 -0.16
10 -0.14
11 -0.15
12 -0.15
13 -0.15
14 0.08
15 -0.15
16 -0.15
17 0.08
18 -0.15
19 -0.15
2 -0.57
20 0.15
21 0.15
22 0.15
23 0.15
24 0.15
25 0.15
26 0.15
27 0.15
28 0.45
29 0.45
3 -0.53
4 -0.53
5 0.09
6 0.08
7 0.05
8 0.03
9 0.47

>  <PUBCHEM_EFFECTIVE_ROTOR_COUNT>  (19) 
1

>  <PUBCHEM_PHARMACOPHORE_FEATURES>  (19) 
7
1 1 acceptor
1 2 acceptor
1 3 donor
1 4 donor
6 1 5 6 7 9 10 rings
6 5 6 11 12 14 16 rings
6 8 13 15 17 18 19 rings

>  <PUBCHEM_HEAVY_ATOM_COUNT>  (19) 
19

>  <PUBCHEM_ATOM_DEF_STEREO_COUNT>  (19) 
0

>  <PUBCHEM_ATOM_UDEF_STEREO_COUNT>  (19) 
0

>  <PUBCHEM_BOND_DEF_STEREO_COUNT>  (19) 
0

>  <PUBCHEM_BOND_UDEF_STEREO_COUNT>  (19) 
0

>  <PUBCHEM_ISOTOPIC_ATOM_COUNT>  (19) 
0

>  <PUBCHEM_COMPONENT_COUNT>  (19) 
1

>  <PUBCHEM_CACTVS_TAUTO_COUNT>  (19) 
15

>  <PUBCHEM_CONFORMER_ID>  (19) 
0052432400000001

>  <PUBCHEM_MMFF94_ENERGY>  (19) 
56.24

>  <PUBCHEM_FEATURE_SELFOVERLAP>  (19) 
35.55

>  <PUBCHEM_SHAPE_FINGERPRINT>  (19) 
10411042 1 17764023971247538183
10616163 171 18340206396663569878
12107183 9 18120083984162219642
12173636 292 18341324591097994070
12236239 1 18186516605170833426
122479 349 18335706030808521499
12251169 10 18408037395057954254
12390115 104 18129681720129959673
12403814 3 17968090915548062085
12788726 201 18047462602246754227
13167823 11 18335136505571419298
13583140 156 17313381210724963987
14739800 52 18126830811355286288
14767858 380 18271506643171306565
14790565 3 18341057320016500809
15042514 8 18267306611463768499
15196674 1 18410292501584812401
15442244 35 18336541634551002090
15669948 3 18270956963670044014
17492 89 18336547209224198594
17834072 32 18411703145123510001
18222031 100 12035748530083685265
19050596 39 18261105309937007370
204376 136 18340491062979608451
20510252 161 18273219690212391635
20715895 44 18048872992650854101
21267235 1 18408892845195723258
21524375 3 18341046324725623235
23227448 37 18340206396367683813
23366157 5 18118408332372998023
23402539 116 18201146681199345037
23402655 69 18408324410869394556
23503953 91 18336816542490854536
23559900 14 18058733490390738958
245318 6 16449267575194642308
2838139 119 17315329468305257485
335352 9 18338797789382443494
350125 39 18412829118746338905
3545911 37 18412826893699682034
38570 142 17388288803696207004
4214541 1 18410572885914142960
474 4 17532093967931437564
474229 33 18412263939641587203
5104073 3 18333729135014281200
633830 44 18410573946592139662
69090 78 18409444769577536707
7064713 232 18339920420323619672
77779 3 18408604768679828562
7832392 63 18409447012135982196
9709674 26 18342462542894507542

>  <PUBCHEM_SHAPE_MULTIPOLES>  (19) 
367.53
9.94
2.57
0.7
3.54
0.25
-0.01
-4.84
-0.47
-1.3
0.26
0.25
0
-1.12

>  <PUBCHEM_SHAPE_SELFOVERLAP>  (19) 
821.245

>  <PUBCHEM_SHAPE_VOLUME>  (19) 
194.1

>  <PUBCHEM_COORDINATE_TYPE>  (19) 
2
5
10

$$$$
68077
     RDKit          3D

 47 49  0  0  0  0  0  0  0  0999 V2000
    0.5632    0.3980   -0.0702 O   0  0  0  0  0  0  0  0  0  0  0  0
   -3.4761   -2.2507    0.2636 O   0  0  0  0  0  0  0  0  0  0  0  0
   -0.9535    2.6343   -0.2723 O   0  0  0  0  0  0  0  0  0  0  0  0
   -4.9476    0.0373    0.0559 O   0  0  0  0  0  0  0  0  0  0  0  0
   -3.7036    2.4799   -0.2112 O   0  0  0  0  0  0  0  0  0  0  0  0
   -1.0892   -3.3046    0.3281 O   0  0  0  0  0  0  0  0  0  0  0  0
    6.8843    0.2628   -0.1801 O   0  0  0  0  0  0  0  0  0  0  0  0
   -1.4314   -0.9775    0.1018 C   0  0  0  0  0  0  0  0  0  0  0  0
   -0.8011    0.2584   -0.0334 C   0  0  0  0  0  0  0  0  0  0  0  0
   -2.8254   -1.0599    0.1325 C   0  0  0  0  0  0  0  0  0  0  0  0
   -1.5633    1.4219   -0.1392 C   0  0  0  0  0  0  0  0  0  0  0  0
   -3.5854    0.1055    0.0268 C   0  0  0  0  0  0  0  0  0  0  0  0
   -2.9559    1.3439   -0.1088 C   0  0  0  0  0  0  0  0  0  0  0  0
    1.3469   -0.7407    0.0390 C   0  0  0  0  0  0  0  0  0  0  0  0
   -0.6034   -2.1884    0.2095 C   0  0  0  0  0  0  0  0  0  0  0  0
    0.8587   -1.9848    0.1665 C   0  0  0  0  0  0  0  0  0  0  0  0
    2.7989   -0.4774   -0.0191 C   0  0  0  0  0  0  0  0  0  0  0  0
    3.6646   -1.4331   -0.5565 C   0  0  0  0  0  0  0  0  0  0  0  0
    3.3132    0.7284    0.4639 C   0  0  0  0  0  0  0  0  0  0  0  0
    5.0362   -1.1844   -0.6105 C   0  0  0  0  0  0  0  0  0  0  0  0
    4.6847    0.9771    0.4098 C   0  0  0  0  0  0  0  0  0  0  0  0
    5.5462    0.0207   -0.1275 C   0  0  0  0  0  0  0  0  0  0  0  0
   -3.8053   -2.9440   -0.9380 C   0  0  0  0  0  0  0  0  0  0  0  0
   -0.6435    3.3378    0.9283 C   0  0  0  0  0  0  0  0  0  0  0  0
   -5.5721    0.1331    1.3336 C   0  0  0  0  0  0  0  0  0  0  0  0
   -4.0785    2.8910   -1.5237 C   0  0  0  0  0  0  0  0  0  0  0  0
    7.3383    1.5152    0.3312 C   0  0  0  0  0  0  0  0  0  0  0  0
    1.5413   -2.8444    0.2383 H   0  0  0  0  0  0  0  0  0  0  0  0
    3.2638   -2.3838   -0.9379 H   0  0  0  0  0  0  0  0  0  0  0  0
    2.6350    1.4835    0.8879 H   0  0  0  0  0  0  0  0  0  0  0  0
    5.7156   -1.9387   -1.0340 H   0  0  0  0  0  0  0  0  0  0  0  0
    5.0868    1.9274    0.7908 H   0  0  0  0  0  0  0  0  0  0  0  0
   -4.2649   -3.9118   -0.6888 H   0  0  0  0  0  0  0  0  0  0  0  0
   -4.5138   -2.3423   -1.5261 H   0  0  0  0  0  0  0  0  0  0  0  0
   -2.8912   -3.1128   -1.5261 H   0  0  0  0  0  0  0  0  0  0  0  0
   -0.9160    2.7195    1.7963 H   0  0  0  0  0  0  0  0  0  0  0  0
    0.4342    3.5562    0.9575 H   0  0  0  0  0  0  0  0  0  0  0  0
   -1.2096    4.2805    0.9575 H   0  0  0  0  0  0  0  0  0  0  0  0
   -4.8139    0.0168    2.1220 H   0  0  0  0  0  0  0  0  0  0  0  0
   -6.0560    1.1160    1.4324 H   0  0  0  0  0  0  0  0  0  0  0  0
   -6.3284   -0.6595    1.4324 H   0  0  0  0  0  0  0  0  0  0  0  0
   -4.8183    3.7023   -1.4565 H   0  0  0  0  0  0  0  0  0  0  0  0
   -3.1896    3.2492   -2.0637 H   0  0  0  0  0  0  0  0  0  0  0  0
   -4.5169    2.0388   -2.0637 H   0  0  0  0  0  0  0  0  0  0  0  0
    7.3283    1.4876    1.4308 H   0  0  0  0  0  0  0  0  0  0  0  0
    8.3627    1.7056   -0.0215 H   0  0  0  0  0  0  0  0  0  0  0  0
    6.6739    2.3178   -0.0215 H   0  0  0  0  0  0  0  0  0  0  0  0
  1  9  1  0
  1 14  1  0
  2 10  1  0
  2 23  1  0
  3 11  1  0
  3 24  1  0
  4 12  1  0
  4 25  1  0
  5 13  1  0
  5 26  1  0
  6 15  2  0
  7 22  1  0
  7 27  1  0
  8  9  1  0
  8 10  2  0
  8 15  1  0
  9 11  2  0
 10 12  1  0
 11 13  1  0
 12 13  2  0
 14 16  2  0
 14 17  1  0
 15 16  1  0
 17 18  1  0
 17 19  2  0
 18 20  2  0
 19 21  1  0
 20 22  1  0
 21 22  2  0
 16 28  1  0
 18 29  1  0
 19 30  1  0
 20 31  1  0
 21 32  1  0
 23 33  1  0
 23 34  1  0
 23 35  1  0
 24 36  1  0
 24 37  1  0
 24 38  1  0
 25 39  1  0
 25 40  1  0
 25 41  1  0
 26 42  1  0
 26 43  1  0
 26 44  1  0
 27 45  1  0
 27 46  1  0
 27 47  1  0
M  END
>  <PUBCHEM_COMPOUND_CID>  (20) 
68077

>  <PUBCHEM_CONFORMER_RMSD>  (20) 
0.8

>  <PUBCHEM_CONFORMER_DIVERSEORDER>  (20) 
1
2
4
3
5

>  <PUBCHEM_MMFF94_PARTIAL_CHARGES>  (20) 
32
1 -0.16
10 0.08
11 0.08
12 0.08
13 0.08
14 0.05
15 0.47
16 -0.14
17 0.03
18 -0.15
19 -0.15
2 -0.36
20 -0.15
21 -0.15
22 0.08
23 0.28
24 0.28
25 0.28
26 0.28
27 0.28
28 0.15
29 0.15
3 -0.36
30 0.15
31 0.15
32 0.15
4 -0.36
5 -0.36
6 -0.57
7 -0.36
8 0.09
9 0.08

>  <PUBCHEM_EFFECTIVE_ROTOR_COUNT>  (20) 
6

>  <PUBCHEM_PHARMACOPHORE_FEATURES>  (20) 
10
1 1 acceptor
1 2 acceptor
1 3 acceptor
1 4 acceptor
1 5 acceptor
1 6 acceptor
1 7 acceptor
6 1 8 9 14 15 16 rings
6 17 18 19 20 21 22 rings
6 8 9 10 11 12 13 rings

>  <PUBCHEM_HEAVY_ATOM_COUNT>  (20) 
27

>  <PUBCHEM_ATOM_DEF_STEREO_COUNT>  (20) 
0

>  <PUBCHEM_ATOM_UDEF_STEREO_COUNT>  (20) 
0

>  <PUBCHEM_BOND_DEF_STEREO_COUNT>  (20) 
0

>  <PUBCHEM_BOND_UDEF_STEREO_COUNT>  (20) 
0

>  <PUBCHEM_ISOTOPIC_ATOM_COUNT>  (20) 
0

>  <PUBCHEM_COMPONENT_COUNT>  (20) 
1

>  <PUBCHEM_CACTVS_TAUTO_COUNT>  (20) 
1

>  <PUBCHEM_CONFORMER_ID>  (20) 
000109ED00000001

>  <PUBCHEM_MMFF94_ENERGY>  (20) 
133.7177

>  <PUBCHEM_FEATURE_SELFOVERLAP>  (20) 
50.813

>  <PUBCHEM_SHAPE_FINGERPRINT>  (20) 
10 15 18261392287199581512
10290309 65 18338800000969197959
10319926 262 18339625795180221442
10411042 1 17904484352760856803
10498660 4 18337389323107782700
10675989 125 17037808150477284381
1100329 8 18339366370037905273
11135609 187 18119800319348936373
11578080 2 16952235522629066967
11595378 159 17749658620022820704
12236239 1 17458345221671967730
12390115 104 18269849622290455201
12403259 415 18337956692724736172
12788726 201 18338795611296097536
12838862 33 18336812140165479381
13140716 1 18266186222262775705
13402501 40 18343301487815180136
14341114 176 18411424977793525492
14765038 42 18129679503900370641
14790565 3 17693382135858652529
14955137 171 18337690697253324307
15042514 8 18190749815786770835
15196674 1 18411421674272565322
16087824 20 18410008820588049527
18336668 15 18040718107885295125
18608769 82 18338801216339194706
20510252 161 18341051826378061824
21033648 29 18410844448043641968
21236236 1 18341894138084472791
21267235 1 18336555970508089003
21279426 13 18267586810729112942
22122407 14 15285366097778249086
23402539 116 18341610455642219838
23557571 272 18341899623427129244
23559900 14 18271520996398062896
283562 15 18409729543521706067
335352 9 18411135866586404965
34934 24 18409726232339485835
350125 39 18409735083602412144
3545911 37 18413110554888657816
4073 2 18260554463576395058
4214541 1 18410856551682890222
5104073 3 18116155463074676113
5171179 24 17913759780911578721
59755656 215 18339646637617369302
6327066 14 18115859703543745205
9709674 26 18341057380304194526
9981440 41 18186806837654907339

>  <PUBCHEM_SHAPE_MULTIPOLES>  (20) 
514.56
14.02
3.47
0.89
20.47
0.41
-0.06
3.52
0.04
-3.74
-0.33
-0.75
0.27
0.95

>  <PUBCHEM_SHAPE_SELFOVERLAP>  (20) 
1118.89

>  <PUBCHEM_SHAPE_VOLUME>  (20) 
282

>  <PUBCHEM_COORDINATE_TYPE>  (20) 
2
5
10

$$$$
