Aspirin
     RDKit          3D

 13 13  0  0  0  0  0  0  0  0999 V2000
   -2.6518   -2.2039   -0.0733 C   0  0  0  0  0  0  0  0  0  0  0  0
   -1.8240   -0.9974    0.2545 C   0  0  0  0  0  0  0  0  0  0  0  0
   -1.9084   -0.3627    1.2980 O   0  0  0  0  0  0  0  0  0  0  0  0
   -0.9858   -0.7216   -0.8202 O   0  0  0  0  0  0  0  0  0  0  0  0
   -0.1116    0.3381   -0.5612 C   0  0  0  0  0  0  0  0  0  0  0  0
   -0.4640    1.5868   -1.0836 C   0  0  0  0  0  0  0  0  0  0  0  0
    0.3779    2.6794   -0.8862 C   0  0  0  0  0  0  0  0  0  0  0  0
    1.5706    2.5212   -0.1811 C   0  0  0  0  0  0  0  0  0  0  0  0
    1.9291    1.2668    0.3236 C   0  0  0  0  0  0  0  0  0  0  0  0
    1.0933    0.1554    0.1329 C   0  0  0  0  0  0  0  0  0  0  0  0
    1.4817   -1.1865    0.6414 C   0  0  0  0  0  0  0  0  0  0  0  0
    0.8888   -2.2361    0.4729 O   0  0  0  0  0  0  0  0  0  0  0  0
    2.6258   -1.1580    1.3520 O   0  0  0  0  0  0  0  0  0  0  0  0
  1  2  1  0
  2  3  2  0
  2  4  1  0
  4  5  1  0
  5  6  2  0
  6  7  1  0
  7  8  2  0
  8  9  1  0
  9 10  2  0
 10 11  1  0
 11 12  2  0
 11 13  1  0
 10  5  1  0
M  END
$$$$
Ibuprofen
     RDKit          3D

 15 15  0  0  0  0  0  0  0  0999 V2000
   -4.7218   -0.5977   -0.0930 C   0  0  0  0  0  0  0  0  0  0  0  0
   -3.2926   -0.0668   -0.2290 C   0  0  0  0  0  0  0  0  0  0  0  0
   -3.2144    1.3535    0.3368 C   0  0  0  0  0  0  0  0  0  0  0  0
   -2.3112   -1.0241    0.4752 C   0  0  0  0  0  0  0  0  0  0  0  0
   -0.8579   -0.7053    0.2178 C   0  0  0  0  0  0  0  0  0  0  0  0
   -0.0613   -0.1489    1.2242 C   0  0  0  0  0  0  0  0  0  0  0  0
    1.2827    0.1495    0.9842 C   0  0  0  0  0  0  0  0  0  0  0  0
    1.8629   -0.1041   -0.2670 C   0  0  0  0  0  0  0  0  0  0  0  0
    1.0608   -0.6654   -1.2719 C   0  0  0  0  0  0  0  0  0  0  0  0
   -0.2836   -0.9620   -1.0322 C   0  0  0  0  0  0  0  0  0  0  0  0
    3.3200    0.2223   -0.5563 C   0  0  0  0  0  0  0  0  0  0  0  0
    3.6120    1.7143   -0.3942 C   0  0  0  0  0  0  0  0  0  0  0  0
    4.2974   -0.5754    0.2902 C   0  0  0  0  0  0  0  0  0  0  0  0
    4.1508   -0.9859    1.4296 O   0  0  0  0  0  0  0  0  0  0  0  0
    5.4733   -0.7806   -0.3452 O   0  0  0  0  0  0  0  0  0  0  0  0
  1  2  1  0
  2  3  1  0
  2  4  1  0
  4  5  1  0
  5  6  1  0
  6  7  2  0
  7  8  1  0
  8  9  2  0
  9 10  1  0
  8 11  1  0
 11 12  1  0
 11 13  1  0
 13 14  2  0
 13 15  1  0
 10  5  2  0
M  END
$$$$
Caffeine
     RDKit          3D

 14 15  0  0  0  0  0  0  0  0999 V2000
    3.2797    0.5877    0.0694 C   0  0  0  0  0  0  0  0  0  0  0  0
    2.1401   -0.2906   -0.0052 N   0  0  0  0  0  0  0  0  0  0  0  0
    2.1763   -1.6563   -0.1072 C   0  0  0  0  0  0  0  0  0  0  0  0
    0.9642   -2.1726   -0.1552 N   0  0  0  0  0  0  0  0  0  0  0  0
    0.1338   -1.0954   -0.0810 C   0  0  0  0  0  0  0  0  0  0  0  0
    0.8246    0.0746    0.0119 C   0  0  0  0  0  0  0  0  0  0  0  0
    0.1954    1.3456    0.1023 C   0  0  0  0  0  0  0  0  0  0  0  0
    0.8274    2.3944    0.1858 O   0  0  0  0  0  0  0  0  0  0  0  0
   -1.1999    1.2610    0.0851 N   0  0  0  0  0  0  0  0  0  0  0  0
   -1.9509    0.0703   -0.0099 C   0  0  0  0  0  0  0  0  0  0  0  0
   -3.1853    0.0981   -0.0173 O   0  0  0  0  0  0  0  0  0  0  0  0
   -1.2395   -1.1271   -0.0940 N   0  0  0  0  0  0  0  0  0  0  0  0
   -1.9367   -2.3961   -0.1944 C   0  0  0  0  0  0  0  0  0  0  0  0
   -1.9603    2.4923    0.1714 C   0  0  0  0  0  0  0  0  0  0  0  0
  1  2  1  0
  2  3  1  0
  3  4  2  0
  4  5  1  0
  5  6  2  0
  6  7  1  0
  7  8  2  0
  7  9  1  0
  9 10  1  0
 10 11  2  0
 10 12  1  0
 12 13  1  0
  9 14  1  0
  6  2  1  0
 12  5  1  0
M  END
$$$$
Paracetamol
     RDKit          3D

 11 11  0  0  0  0  0  0  0  0999 V2000
    3.6706   -0.5421   -0.0545 C   0  0  0  0  0  0  0  0  0  0  0  0
    2.2108   -0.8849   -0.2207 C   0  0  0  0  0  0  0  0  0  0  0  0
    1.8683   -2.0054   -0.5806 O   0  0  0  0  0  0  0  0  0  0  0  0
    1.3849    0.1764    0.1027 N   0  0  0  0  0  0  0  0  0  0  0  0
   -0.0244    0.2106    0.0673 C   0  0  0  0  0  0  0  0  0  0  0  0
   -0.8228   -0.8659   -0.3277 C   0  0  0  0  0  0  0  0  0  0  0  0
   -2.2180   -0.7525   -0.3365 C   0  0  0  0  0  0  0  0  0  0  0  0
   -2.8129    0.4419    0.0508 C   0  0  0  0  0  0  0  0  0  0  0  0
   -4.1669    0.5940    0.0566 O   0  0  0  0  0  0  0  0  0  0  0  0
   -2.0368    1.5223    0.4456 C   0  0  0  0  0  0  0  0  0  0  0  0
   -0.6445    1.4069    0.4537 C   0  0  0  0  0  0  0  0  0  0  0  0
  1  2  1  0
  2  3  2  0
  2  4  1  0
  4  5  1  0
  5  6  1  0
  6  7  2  0
  7  8  1  0
  8  9  1  0
  8 10  2  0
 10 11  1  0
 11  5  2  0
M  END
$$$$
Diazepam
     RDKit          3D

 20 22  0  0  0  0  0  0  0  0999 V2000
   -3.4639   -0.3373    1.4297 C   0  0  0  0  0  0  0  0  0  0  0  0
   -2.3652   -0.7007    0.5445 N   0  0  0  0  0  0  0  0  0  0  0  0
   -2.0842   -2.0677    0.4251 C   0  0  0  0  0  0  0  0  0  0  0  0
   -2.6731   -2.9223    1.0940 O   0  0  0  0  0  0  0  0  0  0  0  0
   -1.0739   -2.4809   -0.6362 C   0  0  0  0  0  0  0  0  0  0  0  0
    0.2604   -2.0614   -0.2212 N   0  0  0  0  0  0  0  0  0  0  0  0
    0.5284   -0.7993   -0.2327 C   0  0  0  0  0  0  0  0  0  0  0  0
    1.8822   -0.3813    0.2550 C   0  0  0  0  0  0  0  0  0  0  0  0
    2.0615    0.8072    0.9746 C   0  0  0  0  0  0  0  0  0  0  0  0
    3.3358    1.1697    1.4166 C   0  0  0  0  0  0  0  0  0  0  0  0
    4.4289    0.3446    1.1523 C   0  0  0  0  0  0  0  0  0  0  0  0
    4.2513   -0.8490    0.4536 C   0  0  0  0  0  0  0  0  0  0  0  0
    2.9798   -1.2153    0.0097 C   0  0  0  0  0  0  0  0  0  0  0  0
   -0.4208    0.2512   -0.7048 C   0  0  0  0  0  0  0  0  0  0  0  0
    0.0952    1.2347   -1.5697 C   0  0  0  0  0  0  0  0  0  0  0  0
   -0.6972    2.3077   -1.9591 C   0  0  0  0  0  0  0  0  0  0  0  0
   -0.0562    3.5138   -3.0024 Cl  0  0  0  0  0  0  0  0  0  0  0  0
   -2.0020    2.4140   -1.4975 C   0  0  0  0  0  0  0  0  0  0  0  0
   -2.5260    1.4247   -0.6587 C   0  0  0  0  0  0  0  0  0  0  0  0
   -1.7597    0.3096   -0.2674 C   0  0  0  0  0  0  0  0  0  0  0  0
  1  2  1  0
  2  3  1  0
  3  4  2  0
  3  5  1  0
  5  6  1  0
  6  7  2  0
  7  8  1  0
  8  9  2  0
  9 10  1  0
 10 11  2  0
 11 12  1  0
 12 13  2  0
  7 14  1  0
 14 15  1  0
 15 16  2  0
 16 17  1  0
 16 18  1  0
 18 19  2  0
 19 20  1  0
 20  2  1  0
 13  8  1  0
 20 14  2  0
M  END
$$$$
Metformin
     RDKit          3D

  9  8  0  0  0  0  0  0  0  0999 V2000
   -1.7407   -1.2526    0.7614 C   0  0  0  0  0  0  0  0  0  0  0  0
   -1.2912   -0.2672   -0.2302 N   0  0  0  0  0  0  0  0  0  0  0  0
   -2.4266    0.4518   -0.8266 C   0  0  0  0  0  0  0  0  0  0  0  0
   -0.2010    0.5067    0.1159 C   0  0  0  0  0  0  0  0  0  0  0  0
   -0.3265    1.7379    0.4858 N   0  0  0  0  0  0  0  0  0  0  0  0
    0.9797   -0.1664    0.0097 N   0  0  0  0  0  0  0  0  0  0  0  0
    2.2830    0.1982   -0.0502 C   0  0  0  0  0  0  0  0  0  0  0  0
    2.7668    1.3692   -0.2763 N   0  0  0  0  0  0  0  0  0  0  0  0
    3.1577   -0.8142    0.1545 N   0  0  0  0  0  0  0  0  0  0  0  0
  1  2  1  0
  2  3  1  0
  2  4  1  0
  4  5  2  0
  4  6  1  0
  6  7  1  0
  7  8  2  0
  7  9  1  0
M  END
$$$$
Atorvastatin
     RDKit          3D

 42 45  0  0  0  0  0  0  0  0999 V2000
    1.0739    1.9505   -2.8230 C   0  0  0  0  0  0  0  0  0  0  0  0
   -0.1944    1.1055   -2.8613 C   0  0  0  0  0  0  0  0  0  0  0  0
   -0.3460    0.3141   -4.1620 C   0  0  0  0  0  0  0  0  0  0  0  0
   -0.4020    0.2584   -1.6166 C   0  0  0  0  0  0  0  0  0  0  0  0
   -1.3860    0.4587   -0.6447 C   0  0  0  0  0  0  0  0  0  0  0  0
   -2.3095    1.6013   -0.5997 C   0  0  0  0  0  0  0  0  0  0  0  0
   -1.9027    2.7516   -0.7170 O   0  0  0  0  0  0  0  0  0  0  0  0
   -3.6255    1.2187   -0.4466 N   0  0  0  0  0  0  0  0  0  0  0  0
   -4.7663    2.0385   -0.3407 C   0  0  0  0  0  0  0  0  0  0  0  0
   -4.7389    3.4342   -0.3284 C   0  0  0  0  0  0  0  0  0  0  0  0
   -5.9297    4.1606   -0.2040 C   0  0  0  0  0  0  0  0  0  0  0  0
   -7.1543    3.4997   -0.0903 C   0  0  0  0  0  0  0  0  0  0  0  0
   -7.1937    2.1075   -0.1095 C   0  0  0  0  0  0  0  0  0  0  0  0
   -6.0058    1.3923   -0.2318 C   0  0  0  0  0  0  0  0  0  0  0  0
   -6.0572    0.0501   -0.2418 F   0  0  0  0  0  0  0  0  0  0  0  0
   -1.3469   -0.6615    0.2385 C   0  0  0  0  0  0  0  0  0  0  0  0
   -2.1972   -0.9243    1.3929 C   0  0  0  0  0  0  0  0  0  0  0  0
   -3.0429   -2.0404    1.4208 C   0  0  0  0  0  0  0  0  0  0  0  0
   -3.8792   -2.2604    2.5168 C   0  0  0  0  0  0  0  0  0  0  0  0
   -3.8819   -1.3627    3.5835 C   0  0  0  0  0  0  0  0  0  0  0  0
   -3.0461   -0.2471    3.5600 C   0  0  0  0  0  0  0  0  0  0  0  0
   -2.2052   -0.0269    2.4678 C   0  0  0  0  0  0  0  0  0  0  0  0
   -0.3461   -1.5198   -0.2004 C   0  0  0  0  0  0  0  0  0  0  0  0
    0.0265   -2.8380    0.3318 C   0  0  0  0  0  0  0  0  0  0  0  0
    0.5049   -2.9633    1.6449 C   0  0  0  0  0  0  0  0  0  0  0  0
    0.8287   -4.2187    2.1612 C   0  0  0  0  0  0  0  0  0  0  0  0
    0.6670   -5.3475    1.3677 C   0  0  0  0  0  0  0  0  0  0  0  0
    0.9736   -6.5525    1.8652 F   0  0  0  0  0  0  0  0  0  0  0  0
    0.1851   -5.2455    0.0684 C   0  0  0  0  0  0  0  0  0  0  0  0
   -0.1412   -3.9905   -0.4487 C   0  0  0  0  0  0  0  0  0  0  0  0
    0.3144   -0.8747   -1.2481 N   0  0  0  0  0  0  0  0  0  0  0  0
    1.5402   -1.3799   -1.8661 C   0  0  0  0  0  0  0  0  0  0  0  0
    2.7686   -1.4110   -0.9430 C   0  0  0  0  0  0  0  0  0  0  0  0
    3.4473   -0.0480   -0.7989 C   0  0  0  0  0  0  0  0  0  0  0  0
    4.0174    0.2818   -2.0657 O   0  0  0  0  0  0  0  0  0  0  0  0
    4.5546   -0.0912    0.2685 C   0  0  0  0  0  0  0  0  0  0  0  0
    5.1319    1.3027    0.5685 C   0  0  0  0  0  0  0  0  0  0  0  0
    5.6231    1.8665   -0.6549 O   0  0  0  0  0  0  0  0  0  0  0  0
    6.2624    1.2099    1.5957 C   0  0  0  0  0  0  0  0  0  0  0  0
    6.6665    2.5822    2.0500 C   0  0  0  0  0  0  0  0  0  0  0  0
    6.5154    3.6204    1.4229 O   0  0  0  0  0  0  0  0  0  0  0  0
    7.2787    2.5762    3.2480 O   0  0  0  0  0  0  0  0  0  0  0  0
  1  2  1  0
  2  3  1  0
  2  4  1  0
  4  5  2  0
  5  6  1  0
  6  7  2  0
  6  8  1  0
  8  9  1  0
  9 10  2  0
 10 11  1  0
 11 12  2  0
 12 13  1  0
 13 14  2  0
 14 15  1  0
  5 16  1  0
 16 17  1  0
 17 18  2  0
 18 19  1  0
 19 20  2  0
 20 21  1  0
 21 22  2  0
 16 23  2  0
 23 24  1  0
 24 25  1  0
 25 26  2  0
 26 27  1  0
 27 28  1  0
 27 29  2  0
 29 30  1  0
 23 31  1  0
 31 32  1  0
 32 33  1  0
 33 34  1  0
 34 35  1  0
 34 36  1  0
 36 37  1  0
 37 38  1  0
 37 39  1  0
 39 40  1  0
 40 41  2  0
 40 42  1  0
 31  4  1  0
 14  9  1  0
 22 17  1  0
 30 24  2  0
M  END
$$$$
Lisinopril
     RDKit          3D

 28 29  0  0  0  0  0  0  0  0999 V2000
   -2.5542    4.7923    0.1382 N   0  0  0  0  0  0  0  0  0  0  0  0
   -2.3869    4.0658    1.3896 C   0  0  0  0  0  0  0  0  0  0  0  0
   -1.4681    2.8477    1.2589 C   0  0  0  0  0  0  0  0  0  0  0  0
   -2.0080    1.7837    0.2978 C   0  0  0  0  0  0  0  0  0  0  0  0
   -1.1112    0.5349    0.1924 C   0  0  0  0  0  0  0  0  0  0  0  0
   -0.0885    0.5756   -0.8688 N   0  0  0  0  0  0  0  0  0  0  0  0
    1.0645    1.4621   -0.6546 C   0  0  0  0  0  0  0  0  0  0  0  0
    2.3131    0.8164   -1.2779 C   0  0  0  0  0  0  0  0  0  0  0  0
    2.6881   -0.5097   -0.6075 C   0  0  0  0  0  0  0  0  0  0  0  0
    3.9622   -1.0785   -1.1831 C   0  0  0  0  0  0  0  0  0  0  0  0
    5.2012   -0.7913   -0.5958 C   0  0  0  0  0  0  0  0  0  0  0  0
    6.3782   -1.3054   -1.1426 C   0  0  0  0  0  0  0  0  0  0  0  0
    6.3276   -2.1060   -2.2822 C   0  0  0  0  0  0  0  0  0  0  0  0
    5.1006   -2.3923   -2.8774 C   0  0  0  0  0  0  0  0  0  0  0  0
    3.9228   -1.8795   -2.3322 C   0  0  0  0  0  0  0  0  0  0  0  0
    0.8407    2.8287   -1.3139 C   0  0  0  0  0  0  0  0  0  0  0  0
   -0.0789    3.1512   -2.0502 O   0  0  0  0  0  0  0  0  0  0  0  0
    1.7865    3.7311   -0.9797 O   0  0  0  0  0  0  0  0  0  0  0  0
   -2.0408   -0.6738   -0.1173 C   0  0  0  0  0  0  0  0  0  0  0  0
   -2.3832   -0.9418   -1.2735 O   0  0  0  0  0  0  0  0  0  0  0  0
   -2.4994   -1.4197    0.9488 N   0  0  0  0  0  0  0  0  0  0  0  0
   -2.3852   -1.1173    2.3618 C   0  0  0  0  0  0  0  0  0  0  0  0
   -3.6225   -1.7591    2.9646 C   0  0  0  0  0  0  0  0  0  0  0  0
   -3.8117   -3.0099    2.1168 C   0  0  0  0  0  0  0  0  0  0  0  0
   -3.3543   -2.5890    0.7143 C   0  0  0  0  0  0  0  0  0  0  0  0
   -2.6489   -3.7756    0.0517 C   0  0  0  0  0  0  0  0  0  0  0  0
   -3.2024   -4.7893   -0.3516 O   0  0  0  0  0  0  0  0  0  0  0  0
   -1.3026   -3.6891    0.0214 O   0  0  0  0  0  0  0  0  0  0  0  0
  1  2  1  0
  2  3  1  0
  3  4  1  0
  4  5  1  0
  5  6  1  0
  6  7  1  0
  7  8  1  0
  8  9  1  0
  9 10  1  0
 10 11  2  0
 11 12  1  0
 12 13  2  0
 13 14  1  0
 14 15  2  0
  7 16  1  0
 16 17  2  0
 16 18  1  0
  5 19  1  0
 19 20  2  0
 19 21  1  0
 21 22  1  0
 22 23  1  0
 23 24  1  0
 24 25  1  0
 25 26  1  0
 26 27  2  0
 26 28  1  0
 15 10  1  0
 25 21  1  0
M  END
$$$$
Sildenafil
     RDKit          3D

 33 36  0  0  0  0  0  0  0  0999 V2000
   -6.8800   -1.4890    1.5450 C   0  0  0  0  0  0  0  0  0  0  0  0
   -5.9239   -1.5908    0.3647 C   0  0  0  0  0  0  0  0  0  0  0  0
   -5.5334   -0.2297   -0.2210 C   0  0  0  0  0  0  0  0  0  0  0  0
   -4.5718    0.5239    0.6330 C   0  0  0  0  0  0  0  0  0  0  0  0
   -5.0097    1.3467    1.6061 N   0  0  0  0  0  0  0  0  0  0  0  0
   -3.8739    1.8148    2.1781 N   0  0  0  0  0  0  0  0  0  0  0  0
   -3.9514    2.7152    3.3023 C   0  0  0  0  0  0  0  0  0  0  0  0
   -2.7457    1.3348    1.5919 C   0  0  0  0  0  0  0  0  0  0  0  0
   -1.3779    1.5577    1.8783 C   0  0  0  0  0  0  0  0  0  0  0  0
   -0.9325    2.2717    2.7695 O   0  0  0  0  0  0  0  0  0  0  0  0
   -0.5622    0.8572    1.0196 N   0  0  0  0  0  0  0  0  0  0  0  0
   -1.0373    0.0327   -0.0001 C   0  0  0  0  0  0  0  0  0  0  0  0
    0.0301   -0.6115   -0.8123 C   0  0  0  0  0  0  0  0  0  0  0  0
    1.0852    0.1812   -1.2848 C   0  0  0  0  0  0  0  0  0  0  0  0
    2.1168   -0.4107   -2.0212 C   0  0  0  0  0  0  0  0  0  0  0  0
    3.4605    0.6094   -2.5768 S   0  0  0  0  0  0  0  0  0  0  0  0
    4.4210   -0.2287   -3.2604 O   0  0  0  0  0  0  0  0  0  0  0  0
    2.8700    1.7641   -3.2167 O   0  0  0  0  0  0  0  0  0  0  0  0
    4.1623    1.1133   -1.1026 N   0  0  0  0  0  0  0  0  0  0  0  0
    4.8034    0.0155   -0.3055 C   0  0  0  0  0  0  0  0  0  0  0  0
    5.2981    0.5615    1.0489 C   0  0  0  0  0  0  0  0  0  0  0  0
    6.2633    1.6652    0.8823 N   0  0  0  0  0  0  0  0  0  0  0  0
    6.6987    2.1777    2.1800 C   0  0  0  0  0  0  0  0  0  0  0  0
    5.6534    2.7401    0.0733 C   0  0  0  0  0  0  0  0  0  0  0  0
    5.1452    2.2331   -1.2925 C   0  0  0  0  0  0  0  0  0  0  0  0
    2.1023   -1.7756   -2.3099 C   0  0  0  0  0  0  0  0  0  0  0  0
    1.0430   -2.5600   -1.8508 C   0  0  0  0  0  0  0  0  0  0  0  0
   -0.0030   -1.9814   -1.1171 C   0  0  0  0  0  0  0  0  0  0  0  0
   -1.0113   -2.7562   -0.6086 O   0  0  0  0  0  0  0  0  0  0  0  0
   -1.6446   -3.5760   -1.5971 C   0  0  0  0  0  0  0  0  0  0  0  0
   -3.0746   -3.8266   -1.1601 C   0  0  0  0  0  0  0  0  0  0  0  0
   -2.2975   -0.1746   -0.2619 N   0  0  0  0  0  0  0  0  0  0  0  0
   -3.1671    0.5130    0.5892 C   0  0  0  0  0  0  0  0  0  0  0  0
  1  2  1  0
  2  3  1  0
  3  4  1  0
  4  5  2  0
  5  6  1  0
  6  7  1  0
  6  8  1  0
  8  9  1  0
  9 10  2  0
  9 11  1  0
 11 12  1  0
 12 13  1  0
 13 14  1  0
 14 15  2  0
 15 16  1  0
 16 17  2  0
 16 18  2  0
 16 19  1  0
 19 20  1  0
 20 21  1  0
 21 22  1  0
 22 23  1  0
 22 24  1  0
 24 25  1  0
 15 26  1  0
 26 27  2  0
 27 28  1  0
 28 29  1  0
 29 30  1  0
 30 31  1  0
 12 32  2  0
 32 33  1  0
 33  4  1  0
 33  8  2  0
 28 13  2  0
 25 19  1  0
M  END
$$$$
Warfarin
     RDKit          3D

 21 22  0  0  0  0  0  0  0  0999 V2000
   -4.8615   -0.4175   -1.1133 O   0  0  0  0  0  0  0  0  0  0  0  0
   -4.0007   -0.8295   -0.1671 C   0  0  0  0  0  0  0  0  0  0  0  0
   -4.0966   -1.9244    0.3601 O   0  0  0  0  0  0  0  0  0  0  0  0
   -2.9799    0.1895    0.1582 C   0  0  0  0  0  0  0  0  0  0  0  0
   -3.3488    1.5460    0.1361 C   0  0  0  0  0  0  0  0  0  0  0  0
   -2.4378    2.5316    0.5142 C   0  0  0  0  0  0  0  0  0  0  0  0
   -1.1592    2.1697    0.9258 C   0  0  0  0  0  0  0  0  0  0  0  0
   -0.7856    0.8238    0.9455 C   0  0  0  0  0  0  0  0  0  0  0  0
   -1.6807   -0.1873    0.5478 C   0  0  0  0  0  0  0  0  0  0  0  0
   -1.1835   -1.5790    0.5404 C   0  0  0  0  0  0  0  0  0  0  0  0
   -0.2244   -2.0538   -0.2648 C   0  0  0  0  0  0  0  0  0  0  0  0
    0.4307   -1.2635   -1.3406 C   0  0  0  0  0  0  0  0  0  0  0  0
   -0.2264   -0.5495   -2.0959 O   0  0  0  0  0  0  0  0  0  0  0  0
    1.9361   -1.3851   -1.4530 C   0  0  0  0  0  0  0  0  0  0  0  0
    2.6505   -0.4401   -0.5213 C   0  0  0  0  0  0  0  0  0  0  0  0
    3.2358   -0.9067    0.6631 C   0  0  0  0  0  0  0  0  0  0  0  0
    3.8676   -0.0184    1.5350 C   0  0  0  0  0  0  0  0  0  0  0  0
    3.9176    1.3415    1.2335 C   0  0  0  0  0  0  0  0  0  0  0  0
    3.3348    1.8160    0.0603 C   0  0  0  0  0  0  0  0  0  0  0  0
    2.7028    0.9304   -0.8130 C   0  0  0  0  0  0  0  0  0  0  0  0
   -1.7426   -2.4279    1.4793 O   0  0  0  0  0  0  0  0  0  0  0  0
  1  2  1  0
  2  3  2  0
  2  4  1  0
  4  5  2  0
  5  6  1  0
  6  7  2  0
  7  8  1  0
  8  9  2  0
  9 10  1  0
 10 11  2  0
 11 12  1  0
 12 13  2  0
 12 14  1  0
 14 15  1  0
 15 16  2  0
 16 17  1  0
 17 18  2  0
 18 19  1  0
 19 20  2  0
 10 21  1  0
  9  4  1  0
 20 15  1  0
M  END
$$$$
Tamoxifen
     RDKit          3D

 28 30  0  0  0  0  0  0  0  0999 V2000
   -3.2127    0.6438    1.2234 C   0  0  0  0  0  0  0  0  0  0  0  0
   -2.2048    1.5631    0.5408 C   0  0  0  0  0  0  0  0  0  0  0  0
   -1.9884    1.2073   -0.9222 C   0  0  0  0  0  0  0  0  0  0  0  0
   -0.9479    0.4775   -1.4093 C   0  0  0  0  0  0  0  0  0  0  0  0
   -0.8211    0.2118   -2.8655 C   0  0  0  0  0  0  0  0  0  0  0  0
   -1.3624   -0.9580   -3.4194 C   0  0  0  0  0  0  0  0  0  0  0  0
   -1.2422   -1.2097   -4.7876 C   0  0  0  0  0  0  0  0  0  0  0  0
   -0.5777   -0.2975   -5.6090 C   0  0  0  0  0  0  0  0  0  0  0  0
   -0.0335    0.8679   -5.0648 C   0  0  0  0  0  0  0  0  0  0  0  0
   -0.1514    1.1210   -3.6969 C   0  0  0  0  0  0  0  0  0  0  0  0
    0.0643   -0.0635   -0.4714 C   0  0  0  0  0  0  0  0  0  0  0  0
    1.2045    0.6868   -0.1513 C   0  0  0  0  0  0  0  0  0  0  0  0
    2.1569    0.1860    0.7435 C   0  0  0  0  0  0  0  0  0  0  0  0
    1.9791   -1.0720    1.3221 C   0  0  0  0  0  0  0  0  0  0  0  0
    2.8239   -1.6744    2.2119 O   0  0  0  0  0  0  0  0  0  0  0  0
    3.9363   -0.9054    2.6791 C   0  0  0  0  0  0  0  0  0  0  0  0
    4.7091   -1.7183    3.7356 C   0  0  0  0  0  0  0  0  0  0  0  0
    4.1920   -1.5978    5.1188 N   0  0  0  0  0  0  0  0  0  0  0  0
    5.0623   -2.3377    6.0375 C   0  0  0  0  0  0  0  0  0  0  0  0
    2.8157   -2.0903    5.2344 C   0  0  0  0  0  0  0  0  0  0  0  0
    0.8496   -1.8273    0.9903 C   0  0  0  0  0  0  0  0  0  0  0  0
   -0.1050   -1.3287    0.1009 C   0  0  0  0  0  0  0  0  0  0  0  0
   -3.0203    1.7837   -1.8176 C   0  0  0  0  0  0  0  0  0  0  0  0
   -4.1077    1.0072   -2.2429 C   0  0  0  0  0  0  0  0  0  0  0  0
   -5.0755    1.5550   -3.0874 C   0  0  0  0  0  0  0  0  0  0  0  0
   -4.9600    2.8795   -3.5159 C   0  0  0  0  0  0  0  0  0  0  0  0
   -3.8795    3.6606   -3.0961 C   0  0  0  0  0  0  0  0  0  0  0  0
   -2.9126    3.1152   -2.2498 C   0  0  0  0  0  0  0  0  0  0  0  0
  1  2  1  0
  2  3  1  0
  3  4  2  3
  4  5  1  0
  5  6  2  0
  6  7  1  0
  7  8  2  0
  8  9  1  0
  9 10  2  0
  4 11  1  0
 11 12  1  0
 12 13  2  0
 13 14  1  0
 14 15  1  0
 15 16  1  0
 16 17  1  0
 17 18  1  0
 18 19  1  0
 18 20  1  0
 14 21  2  0
 21 22  1  0
  3 23  1  0
 23 24  2  0
 24 25  1  0
 25 26  2  0
 26 27  1  0
 27 28  2  0
 10  5  1  0
 22 11  2  0
 28 23  1  0
M  END
$$$$
Erlotinib
     RDKit          3D

 27 29  0  0  0  0  0  0  0  0999 V2000
    7.2216   -1.8605   -1.5215 C   0  0  0  0  0  0  0  0  0  0  0  0
    6.5313   -1.0231   -1.0073 C   0  0  0  0  0  0  0  0  0  0  0  0
    5.7079   -0.0256   -0.3946 C   0  0  0  0  0  0  0  0  0  0  0  0
    6.2686    1.1831    0.0168 C   0  0  0  0  0  0  0  0  0  0  0  0
    5.4597    2.1606    0.5910 C   0  0  0  0  0  0  0  0  0  0  0  0
    4.0936    1.9218    0.7644 C   0  0  0  0  0  0  0  0  0  0  0  0
    3.5167    0.6964    0.3927 C   0  0  0  0  0  0  0  0  0  0  0  0
    2.1187    0.5314    0.5275 N   0  0  0  0  0  0  0  0  0  0  0  0
    1.3770   -0.6756    0.6461 C   0  0  0  0  0  0  0  0  0  0  0  0
    2.0215   -1.8188    0.9390 N   0  0  0  0  0  0  0  0  0  0  0  0
    1.2757   -2.9174    1.0702 C   0  0  0  0  0  0  0  0  0  0  0  0
   -0.0525   -2.9886    0.9379 N   0  0  0  0  0  0  0  0  0  0  0  0
   -0.6875   -1.8541    0.6346 C   0  0  0  0  0  0  0  0  0  0  0  0
   -2.0662   -1.8971    0.4738 C   0  0  0  0  0  0  0  0  0  0  0  0
   -2.8102   -0.7587    0.1474 C   0  0  0  0  0  0  0  0  0  0  0  0
   -4.1707   -0.7424   -0.0301 O   0  0  0  0  0  0  0  0  0  0  0  0
   -4.8927   -1.9550    0.2070 C   0  0  0  0  0  0  0  0  0  0  0  0
   -6.3728   -1.6513   -0.0085 C   0  0  0  0  0  0  0  0  0  0  0  0
   -6.8182   -0.6812    0.9387 O   0  0  0  0  0  0  0  0  0  0  0  0
   -2.1548    0.4703   -0.0235 C   0  0  0  0  0  0  0  0  0  0  0  0
   -2.9498    1.5354   -0.3579 O   0  0  0  0  0  0  0  0  0  0  0  0
   -2.4177    2.8530   -0.2598 C   0  0  0  0  0  0  0  0  0  0  0  0
   -1.8593    3.3251   -1.5988 C   0  0  0  0  0  0  0  0  0  0  0  0
   -1.3406    4.6453   -1.4878 O   0  0  0  0  0  0  0  0  0  0  0  0
   -0.7685    0.5243    0.1259 C   0  0  0  0  0  0  0  0  0  0  0  0
   -0.0220   -0.6339    0.4677 C   0  0  0  0  0  0  0  0  0  0  0  0
    4.3390   -0.2588   -0.2185 C   0  0  0  0  0  0  0  0  0  0  0  0
  1  2  3  0
  2  3  1  0
  3  4  1  0
  4  5  2  0
  5  6  1  0
  6  7  2  0
  7  8  1  0
  8  9  1  0
  9 10  1  0
 10 11  2  0
 11 12  1  0
 12 13  2  0
 13 14  1  0
 14 15  2  0
 15 16  1  0
 16 17  1  0
 17 18  1  0
 18 19  1  0
 15 20  1  0
 20 21  1  0
 21 22  1  0
 22 23  1  0
 23 24  1  0
 20 25  2  0
 25 26  1  0
  7 27  1  0
 27  3  2  0
 26  9  2  0
 26 13  1  0
M  END
$$$$
Gefitinib
     RDKit          3D

 31 34  0  0  0  0  0  0  0  0999 V2000
   -1.7920   -3.6402   -1.2481 C   0  0  0  0  0  0  0  0  0  0  0  0
   -1.4768   -2.4406   -0.5522 O   0  0  0  0  0  0  0  0  0  0  0  0
   -0.1556   -2.0813   -0.4789 C   0  0  0  0  0  0  0  0  0  0  0  0
    0.8895   -2.7256   -1.1484 C   0  0  0  0  0  0  0  0  0  0  0  0
    2.2097   -2.2983   -1.0397 C   0  0  0  0  0  0  0  0  0  0  0  0
    3.1464   -2.9627   -1.7214 N   0  0  0  0  0  0  0  0  0  0  0  0
    4.4041   -2.5235   -1.6011 C   0  0  0  0  0  0  0  0  0  0  0  0
    4.8126   -1.4918   -0.8557 N   0  0  0  0  0  0  0  0  0  0  0  0
    3.8688   -0.8333   -0.1604 C   0  0  0  0  0  0  0  0  0  0  0  0
    4.2497    0.2566    0.6707 N   0  0  0  0  0  0  0  0  0  0  0  0
    5.4667    0.9752    0.6790 C   0  0  0  0  0  0  0  0  0  0  0  0
    5.8227    1.6903    1.8361 C   0  0  0  0  0  0  0  0  0  0  0  0
    6.9797    2.4742    1.8730 C   0  0  0  0  0  0  0  0  0  0  0  0
    7.7801    2.5696    0.7419 C   0  0  0  0  0  0  0  0  0  0  0  0
    8.8842    3.3300    0.7966 F   0  0  0  0  0  0  0  0  0  0  0  0
    7.4280    1.9017   -0.4267 C   0  0  0  0  0  0  0  0  0  0  0  0
    8.3976    2.0444   -1.8428 Cl  0  0  0  0  0  0  0  0  0  0  0  0
    6.2706    1.1189   -0.4611 C   0  0  0  0  0  0  0  0  0  0  0  0
    2.5071   -1.1955   -0.2248 C   0  0  0  0  0  0  0  0  0  0  0  0
    1.4556   -0.5294    0.4514 C   0  0  0  0  0  0  0  0  0  0  0  0
    0.1374   -0.9626    0.3094 C   0  0  0  0  0  0  0  0  0  0  0  0
   -0.8894   -0.3596    0.9875 O   0  0  0  0  0  0  0  0  0  0  0  0
   -0.9616    1.0548    0.7723 C   0  0  0  0  0  0  0  0  0  0  0  0
   -2.4050    1.5054    0.9895 C   0  0  0  0  0  0  0  0  0  0  0  0
   -3.3515    0.8635   -0.0369 C   0  0  0  0  0  0  0  0  0  0  0  0
   -4.7273    1.3681    0.0996 N   0  0  0  0  0  0  0  0  0  0  0  0
   -5.4926    1.1120   -1.1434 C   0  0  0  0  0  0  0  0  0  0  0  0
   -7.0081    1.1366   -0.8955 C   0  0  0  0  0  0  0  0  0  0  0  0
   -7.4427    0.0854   -0.0207 O   0  0  0  0  0  0  0  0  0  0  0  0
   -6.4254   -0.3297    0.9029 C   0  0  0  0  0  0  0  0  0  0  0  0
   -5.4388    0.7953    1.2668 C   0  0  0  0  0  0  0  0  0  0  0  0
  1  2  1  0
  2  3  1  0
  3  4  2  0
  4  5  1  0
  5  6  2  0
  6  7  1  0
  7  8  2  0
  8  9  1  0
  9 10  1  0
 10 11  1  0
 11 12  1  0
 12 13  2  0
 13 14  1  0
 14 15  1  0
 14 16  2  0
 16 17  1  0
 16 18  1  0
  9 19  2  0
 19 20  1  0
 20 21  2  0
 21 22  1  0
 22 23  1  0
 23 24  1  0
 24 25  1  0
 25 26  1  0
 26 27  1  0
 27 28  1  0
 28 29  1  0
 29 30  1  0
 30 31  1  0
 21  3  1  0
 31 26  1  0
 19  5  1  0
 18 11  2  0
M  END
$$$$
Imatinib
     RDKit          3D

 37 41  0  0  0  0  0  0  0  0999 V2000
   -5.7051   -2.5871    3.1675 C   0  0  0  0  0  0  0  0  0  0  0  0
   -4.2953   -2.2707    2.7414 C   0  0  0  0  0  0  0  0  0  0  0  0
   -3.2454   -3.0162    3.3004 C   0  0  0  0  0  0  0  0  0  0  0  0
   -1.9247   -2.7819    2.9211 C   0  0  0  0  0  0  0  0  0  0  0  0
   -1.6252   -1.7899    1.9880 C   0  0  0  0  0  0  0  0  0  0  0  0
   -0.2636   -1.5921    1.6712 N   0  0  0  0  0  0  0  0  0  0  0  0
    0.2831   -0.5488    0.9479 C   0  0  0  0  0  0  0  0  0  0  0  0
   -0.2923    0.4373    0.5064 O   0  0  0  0  0  0  0  0  0  0  0  0
    1.7570   -0.6357    0.7726 C   0  0  0  0  0  0  0  0  0  0  0  0
    2.5201    0.5213    0.9581 C   0  0  0  0  0  0  0  0  0  0  0  0
    3.9066    0.4728    0.8146 C   0  0  0  0  0  0  0  0  0  0  0  0
    4.5423   -0.7274    0.4629 C   0  0  0  0  0  0  0  0  0  0  0  0
    6.0453   -0.7767    0.2730 C   0  0  0  0  0  0  0  0  0  0  0  0
    6.4525   -0.9427   -1.1319 N   0  0  0  0  0  0  0  0  0  0  0  0
    6.1147    0.2263   -1.9726 C   0  0  0  0  0  0  0  0  0  0  0  0
    7.0758    1.4239   -1.7974 C   0  0  0  0  0  0  0  0  0  0  0  0
    8.5047    1.1028   -2.0003 N   0  0  0  0  0  0  0  0  0  0  0  0
    9.3231    1.6296   -0.9095 C   0  0  0  0  0  0  0  0  0  0  0  0
    8.7116   -0.3458   -2.1865 C   0  0  0  0  0  0  0  0  0  0  0  0
    7.9038   -1.2417   -1.2170 C   0  0  0  0  0  0  0  0  0  0  0  0
    3.7649   -1.8784    0.2585 C   0  0  0  0  0  0  0  0  0  0  0  0
    2.3778   -1.8369    0.4149 C   0  0  0  0  0  0  0  0  0  0  0  0
   -2.6731   -1.0666    1.4097 C   0  0  0  0  0  0  0  0  0  0  0  0
   -4.0162   -1.2822    1.7703 C   0  0  0  0  0  0  0  0  0  0  0  0
   -5.0772   -0.6181    1.1320 N   0  0  0  0  0  0  0  0  0  0  0  0
   -5.1693    0.1267   -0.0406 C   0  0  0  0  0  0  0  0  0  0  0  0
   -4.1895    0.1329   -0.9499 N   0  0  0  0  0  0  0  0  0  0  0  0
   -4.3745    0.8638   -2.0589 C   0  0  0  0  0  0  0  0  0  0  0  0
   -5.5198    1.5740   -2.3112 C   0  0  0  0  0  0  0  0  0  0  0  0
   -6.5013    1.5042   -1.3430 C   0  0  0  0  0  0  0  0  0  0  0  0
   -7.7979    2.1960   -1.4602 C   0  0  0  0  0  0  0  0  0  0  0  0
   -8.4919    2.6595   -0.3309 C   0  0  0  0  0  0  0  0  0  0  0  0
   -9.7179    3.3105   -0.4629 C   0  0  0  0  0  0  0  0  0  0  0  0
  -10.2329    3.4854   -1.7337 C   0  0  0  0  0  0  0  0  0  0  0  0
   -9.6135    3.0594   -2.8541 N   0  0  0  0  0  0  0  0  0  0  0  0
   -8.4253    2.4255   -2.6874 C   0  0  0  0  0  0  0  0  0  0  0  0
   -6.3261    0.7897   -0.2054 N   0  0  0  0  0  0  0  0  0  0  0  0
  1  2  1  0
  2  3  1  0
  3  4  2  0
  4  5  1  0
  5  6  1  0
  6  7  1  0
  7  8  2  0
  7  9  1  0
  9 10  1  0
 10 11  2  0
 11 12  1  0
 12 13  1  0
 13 14  1  0
 14 15  1  0
 15 16  1  0
 16 17  1  0
 17 18  1  0
 17 19  1  0
 19 20  1  0
 12 21  2  0
 21 22  1  0
  5 23  2  0
 23 24  1  0
 24 25  1  0
 25 26  1  0
 26 27  2  0
 27 28  1  0
 28 29  2  0
 29 30  1  0
 30 31  1  0
 31 32  2  0
 32 33  1  0
 33 34  2  0
 34 35  1  0
 35 36  2  0
 30 37  2  0
 24  2  2  0
 37 26  1  0
 22  9  2  0
 36 31  1  0
 20 14  1  0
M  END
$$$$
Oseltamivir
     RDKit          3D

 20 20  0  0  0  0  0  0  0  0999 V2000
   -4.9185    0.2012   -0.7196 C   0  0  0  0  0  0  0  0  0  0  0  0
   -3.4680   -0.1204   -0.3963 C   0  0  0  0  0  0  0  0  0  0  0  0
   -2.6770    1.0673    0.1784 C   0  0  0  0  0  0  0  0  0  0  0  0
   -3.2456    1.5415    1.5256 C   0  0  0  0  0  0  0  0  0  0  0  0
   -2.4557    2.7072    2.1103 C   0  0  0  0  0  0  0  0  0  0  0  0
   -1.3180    0.6710    0.4111 O   0  0  0  0  0  0  0  0  0  0  0  0
   -0.5274    0.5643   -0.7719 C   0  0  0  0  0  0  0  0  0  0  0  0
    0.7511    1.3046   -0.5556 C   0  0  0  0  0  0  0  0  0  0  0  0
    1.8059    0.5886   -0.9691 C   0  0  0  0  0  0  0  0  0  0  0  0
    1.4037   -0.7462   -1.5120 C   0  0  0  0  0  0  0  0  0  0  0  0
   -0.0391   -0.8930   -0.9927 C   0  0  0  0  0  0  0  0  0  0  0  0
   -0.0952   -1.6709    0.2474 N   0  0  0  0  0  0  0  0  0  0  0  0
    0.0367   -3.0347    0.2621 C   0  0  0  0  0  0  0  0  0  0  0  0
   -0.1395   -3.6621    1.6177 C   0  0  0  0  0  0  0  0  0  0  0  0
    0.2716   -3.6989   -0.7424 O   0  0  0  0  0  0  0  0  0  0  0  0
    3.1911    1.0748   -0.8918 C   0  0  0  0  0  0  0  0  0  0  0  0
    3.5120    2.1492   -0.4089 O   0  0  0  0  0  0  0  0  0  0  0  0
    4.0242    0.1586   -1.4408 O   0  0  0  0  0  0  0  0  0  0  0  0
    5.4175    0.5002   -1.4330 C   0  0  0  0  0  0  0  0  0  0  0  0
    6.0537    0.0703   -0.1245 C   0  0  0  0  0  0  0  0  0  0  0  0
  1  2  1  0
  2  3  1  0
  3  4  1  0
  4  5  1  0
  3  6  1  0
  6  7  1  0
  7  8  1  0
  8  9  2  0
  9 10  1  0
 10 11  1  0
 11 12  1  0
 12 13  1  0
 13 14  1  0
 13 15  2  0
  9 16  1  0
 16 17  2  0
 16 18  1  0
 18 19  1  0
 19 20  1  0
 11  7  1  0
M  END
$$$$
Remdesivir
     RDKit          3D

 44 48  0  0  0  0  0  0  0  0999 V2000
   -8.4527    2.0916   -1.1930 C   0  0  0  0  0  0  0  0  0  0  0  0
   -7.4720    1.2848   -0.3619 C   0  0  0  0  0  0  0  0  0  0  0  0
   -6.1630    2.0171   -0.0267 C   0  0  0  0  0  0  0  0  0  0  0  0
   -6.3561    3.2511    0.8723 C   0  0  0  0  0  0  0  0  0  0  0  0
   -6.4342    4.5544    0.0896 C   0  0  0  0  0  0  0  0  0  0  0  0
   -5.3288    1.0981    0.7214 O   0  0  0  0  0  0  0  0  0  0  0  0
   -4.5290    0.2784   -0.0069 C   0  0  0  0  0  0  0  0  0  0  0  0
   -4.4705    0.2183   -1.2269 O   0  0  0  0  0  0  0  0  0  0  0  0
   -3.6869   -0.5519    0.8837 C   0  0  0  0  0  0  0  0  0  0  0  0
   -4.0766   -0.8184    2.2015 C   0  0  0  0  0  0  0  0  0  0  0  0
   -3.2840   -1.6390    2.9969 C   0  0  0  0  0  0  0  0  0  0  0  0
   -2.1248   -2.1619    2.4550 C   0  0  0  0  0  0  0  0  0  0  0  0
   -1.3118   -3.0134    3.1926 N   0  0  0  0  0  0  0  0  0  0  0  0
   -1.7414   -1.9148    1.1927 N   0  0  0  0  0  0  0  0  0  0  0  0
   -2.5064   -1.1326    0.3983 C   0  0  0  0  0  0  0  0  0  0  0  0
   -2.0202   -0.8341   -0.8844 N   0  0  0  0  0  0  0  0  0  0  0  0
   -0.7516   -1.6295   -1.5499 P   0  0  0  0  0  0  0  0  0  0  0  0
   -0.3939   -1.2536   -2.9660 O   0  0  0  0  0  0  0  0  0  0  0  0
    0.5321   -1.4121   -0.5836 O   0  0  0  0  0  0  0  0  0  0  0  0
    1.1064   -0.1235   -0.5739 C   0  0  0  0  0  0  0  0  0  0  0  0
    2.2825   -0.0532    0.4000 C   0  0  0  0  0  0  0  0  0  0  0  0
    2.8767    1.2591    0.2821 O   0  0  0  0  0  0  0  0  0  0  0  0
    4.2208    1.0900   -0.2057 C   0  0  0  0  0  0  0  0  0  0  0  0
    5.0582    2.1622    0.2943 N   0  0  0  0  0  0  0  0  0  0  0  0
    4.7012    3.1936    1.1193 C   0  0  0  0  0  0  0  0  0  0  0  0
    5.7001    4.0307    1.3215 N   0  0  0  0  0  0  0  0  0  0  0  0
    6.7478    3.5182    0.5869 C   0  0  0  0  0  0  0  0  0  0  0  0
    8.0621    3.9595    0.3641 C   0  0  0  0  0  0  0  0  0  0  0  0
    8.5814    5.1224    0.9209 N   0  0  0  0  0  0  0  0  0  0  0  0
    8.8548    3.2346   -0.4575 N   0  0  0  0  0  0  0  0  0  0  0  0
    8.3577    2.1008   -0.9964 C   0  0  0  0  0  0  0  0  0  0  0  0
    7.1248    1.5681   -0.8462 N   0  0  0  0  0  0  0  0  0  0  0  0
    6.3705    2.3478   -0.0514 C   0  0  0  0  0  0  0  0  0  0  0  0
    4.6594   -0.2968    0.2516 C   0  0  0  0  0  0  0  0  0  0  0  0
    5.6881   -0.8942   -0.5344 O   0  0  0  0  0  0  0  0  0  0  0  0
    3.3703   -1.0848    0.0910 C   0  0  0  0  0  0  0  0  0  0  0  0
    3.3489   -2.1841    0.9975 O   0  0  0  0  0  0  0  0  0  0  0  0
   -1.0323   -3.2148   -1.4051 O   0  0  0  0  0  0  0  0  0  0  0  0
   -0.1170   -4.2037   -1.6264 C   0  0  0  0  0  0  0  0  0  0  0  0
    1.0419   -4.0451   -2.3816 C   0  0  0  0  0  0  0  0  0  0  0  0
    1.9175   -5.1208   -2.5459 C   0  0  0  0  0  0  0  0  0  0  0  0
    1.6297   -6.3551   -1.9623 C   0  0  0  0  0  0  0  0  0  0  0  0
    0.4658   -6.5162   -1.2145 C   0  0  0  0  0  0  0  0  0  0  0  0
   -0.4069   -5.4420   -1.0499 C   0  0  0  0  0  0  0  0  0  0  0  0
  1  2  1  0
  2  3  1  0
  3  4  1  0
  4  5  1  0
  3  6  1  0
  6  7  1  0
  7  8  2  0
  7  9  1  0
  9 10  1  0
 10 11  2  0
 11 12  1  0
 12 13  1  0
 12 14  2  0
 14 15  1  0
 15 16  1  0
 16 17  1  0
 17 18  2  0
 17 19  1  0
 19 20  1  0
 20 21  1  0
 21 22  1  0
 22 23  1  0
 23 24  1  0
 24 25  1  0
 25 26  2  0
 26 27  1  0
 27 28  2  0
 28 29  1  0
 28 30  1  0
 30 31  2  0
 31 32  1  0
 32 33  2  0
 23 34  1  0
 34 35  1  0
 34 36  1  0
 36 37  1  0
 17 38  1  0
 38 39  1  0
 39 40  2  0
 40 41  1  0
 41 42  2  0
 42 43  1  0
 43 44  2  0
 15  9  2  0
 36 21  1  0
 44 39  1  0
 33 24  1  0
 33 27  1  0
M  END
$$$$
Lopinavir
     RDKit          3D

 22 24  0  0  0  0  0  0  0  0999 V2000
   -5.8640   -0.0994    1.0065 C   0  0  0  0  0  0  0  0  0  0  0  0
   -4.9591    0.2597   -0.1748 C   0  0  0  0  0  0  0  0  0  0  0  0
   -5.0595    1.7509   -0.5053 C   0  0  0  0  0  0  0  0  0  0  0  0
   -3.5218   -0.1604    0.0747 C   0  0  0  0  0  0  0  0  0  0  0  0
   -2.7713    0.3714    1.1334 C   0  0  0  0  0  0  0  0  0  0  0  0
   -1.4496   -0.0288    1.3448 C   0  0  0  0  0  0  0  0  0  0  0  0
   -0.8525   -0.9746    0.5048 C   0  0  0  0  0  0  0  0  0  0  0  0
    0.5860   -1.3872    0.7174 C   0  0  0  0  0  0  0  0  0  0  0  0
    1.5595   -0.4687   -0.0447 C   0  0  0  0  0  0  0  0  0  0  0  0
    2.2856   -1.2603   -1.1094 C   0  0  0  0  0  0  0  0  0  0  0  0
    1.7180   -2.0701   -1.8430 O   0  0  0  0  0  0  0  0  0  0  0  0
    3.6116   -1.0119   -1.3053 N   0  0  0  0  0  0  0  0  0  0  0  0
    4.3914   -0.1672   -0.5183 C   0  0  0  0  0  0  0  0  0  0  0  0
    5.7400    0.0024   -0.8412 C   0  0  0  0  0  0  0  0  0  0  0  0
    6.5470    0.8290   -0.0560 C   0  0  0  0  0  0  0  0  0  0  0  0
    6.0107    1.4825    1.0531 C   0  0  0  0  0  0  0  0  0  0  0  0
    4.6651    1.3109    1.3782 C   0  0  0  0  0  0  0  0  0  0  0  0
    3.8562    0.4859    0.5877 C   0  0  0  0  0  0  0  0  0  0  0  0
    2.4340    0.2918    0.9264 C   0  0  0  0  0  0  0  0  0  0  0  0
    1.9925    0.8006    1.9560 O   0  0  0  0  0  0  0  0  0  0  0  0
   -1.5921   -1.5020   -0.5589 C   0  0  0  0  0  0  0  0  0  0  0  0
   -2.9138   -1.1009   -0.7692 C   0  0  0  0  0  0  0  0  0  0  0  0
  1  2  1  0
  2  3  1  0
  2  4  1  0
  4  5  1  0
  5  6  2  0
  6  7  1  0
  7  8  1  0
  8  9  1  0
  9 10  1  0
 10 11  2  0
 10 12  1  0
 12 13  1  0
 13 14  2  0
 14 15  1  0
 15 16  2  0
 16 17  1  0
 17 18  2  0
 18 19  1  0
 19 20  2  0
  7 21  2  0
 21 22  1  0
 22  4  2  0
 19  9  1  0
 18 13  1  0
M  END
$$$$
Chloroquine
     RDKit          3D

 22 23  0  0  0  0  0  0  0  0999 V2000
   -6.2972    0.9305    0.4882 C   0  0  0  0  0  0  0  0  0  0  0  0
   -4.7920    1.1610    0.5828 C   0  0  0  0  0  0  0  0  0  0  0  0
   -4.0073   -0.0252    0.1988 N   0  0  0  0  0  0  0  0  0  0  0  0
   -4.0690   -0.2810   -1.2495 C   0  0  0  0  0  0  0  0  0  0  0  0
   -3.3671   -1.5662   -1.6809 C   0  0  0  0  0  0  0  0  0  0  0  0
   -2.6410    0.0322    0.7476 C   0  0  0  0  0  0  0  0  0  0  0  0
   -1.7189    1.1069    0.1562 C   0  0  0  0  0  0  0  0  0  0  0  0
   -0.3486    1.2031    0.8473 C   0  0  0  0  0  0  0  0  0  0  0  0
    0.5221   -0.0710    0.7085 C   0  0  0  0  0  0  0  0  0  0  0  0
    0.4523   -0.9082    1.9914 C   0  0  0  0  0  0  0  0  0  0  0  0
    1.9224    0.3211    0.4875 N   0  0  0  0  0  0  0  0  0  0  0  0
    2.8492   -0.4942   -0.1905 C   0  0  0  0  0  0  0  0  0  0  0  0
    2.5594   -1.8067   -0.5649 C   0  0  0  0  0  0  0  0  0  0  0  0
    3.5239   -2.5548   -1.2133 C   0  0  0  0  0  0  0  0  0  0  0  0
    4.7593   -2.1064   -1.4988 N   0  0  0  0  0  0  0  0  0  0  0  0
    5.0813   -0.8695   -1.1007 C   0  0  0  0  0  0  0  0  0  0  0  0
    6.3694   -0.4289   -1.3649 C   0  0  0  0  0  0  0  0  0  0  0  0
    6.7994    0.8325   -0.9649 C   0  0  0  0  0  0  0  0  0  0  0  0
    8.4069    1.3403   -1.3085 Cl  0  0  0  0  0  0  0  0  0  0  0  0
    5.9409    1.6800   -0.2818 C   0  0  0  0  0  0  0  0  0  0  0  0
    4.6396    1.2576   -0.0110 C   0  0  0  0  0  0  0  0  0  0  0  0
    4.1741   -0.0162   -0.4243 C   0  0  0  0  0  0  0  0  0  0  0  0
  1  2  1  0
  2  3  1  0
  3  4  1  0
  4  5  1  0
  3  6  1  0
  6  7  1  0
  7  8  1  0
  8  9  1  0
  9 10  1  0
  9 11  1  0
 11 12  1  0
 12 13  1  0
 13 14  2  0
 14 15  1  0
 15 16  2  0
 16 17  1  0
 17 18  2  0
 18 19  1  0
 18 20  1  0
 20 21  2  0
 21 22  1  0
 22 12  2  0
 22 16  1  0
M  END
$$$$
Hydroxychloroquine
     RDKit          3D

 23 24  0  0  0  0  0  0  0  0999 V2000
   -3.9439    2.4188   -0.6776 C   0  0  0  0  0  0  0  0  0  0  0  0
   -4.3924    0.9612   -0.6340 C   0  0  0  0  0  0  0  0  0  0  0  0
   -4.0074    0.2901    0.6085 N   0  0  0  0  0  0  0  0  0  0  0  0
   -4.7788   -0.9317    0.8671 C   0  0  0  0  0  0  0  0  0  0  0  0
   -4.5265   -2.1482   -0.0340 C   0  0  0  0  0  0  0  0  0  0  0  0
   -5.4770   -3.1770    0.2367 O   0  0  0  0  0  0  0  0  0  0  0  0
   -2.5698    0.1759    0.8745 C   0  0  0  0  0  0  0  0  0  0  0  0
   -1.6693   -0.2674   -0.2905 C   0  0  0  0  0  0  0  0  0  0  0  0
   -0.2168   -0.4262    0.1750 C   0  0  0  0  0  0  0  0  0  0  0  0
    0.7569   -0.7478   -0.9757 C   0  0  0  0  0  0  0  0  0  0  0  0
    0.5084   -2.1537   -1.5367 C   0  0  0  0  0  0  0  0  0  0  0  0
    2.1340   -0.6931   -0.4674 N   0  0  0  0  0  0  0  0  0  0  0  0
    2.8835    0.4986   -0.4248 C   0  0  0  0  0  0  0  0  0  0  0  0
    2.3151    1.7483   -0.6762 C   0  0  0  0  0  0  0  0  0  0  0  0
    3.1048    2.8797   -0.5966 C   0  0  0  0  0  0  0  0  0  0  0  0
    4.4081    2.8665   -0.2654 N   0  0  0  0  0  0  0  0  0  0  0  0
    4.9638    1.6862    0.0354 C   0  0  0  0  0  0  0  0  0  0  0  0
    6.2980    1.6866    0.4132 C   0  0  0  0  0  0  0  0  0  0  0  0
    6.9502    0.5098    0.7681 C   0  0  0  0  0  0  0  0  0  0  0  0
    8.6055    0.5531    1.2351 Cl  0  0  0  0  0  0  0  0  0  0  0  0
    6.2698   -0.6979    0.7561 C   0  0  0  0  0  0  0  0  0  0  0  0
    4.9286   -0.7204    0.3739 C   0  0  0  0  0  0  0  0  0  0  0  0
    4.2485    0.4635   -0.0082 C   0  0  0  0  0  0  0  0  0  0  0  0
  1  2  1  0
  2  3  1  0
  3  4  1  0
  4  5  1  0
  5  6  1  0
  3  7  1  0
  7  8  1  0
  8  9  1  0
  9 10  1  0
 10 11  1  0
 10 12  1  0
 12 13  1  0
 13 14  1  0
 14 15  2  0
 15 16  1  0
 16 17  2  0
 17 18  1  0
 18 19  2  0
 19 20  1  0
 19 21  1  0
 21 22  2  0
 22 23  1  0
 23 13  2  0
 23 17  1  0
M  END
$$$$
