1203


 26 28  0  0  0  0  0  0  0  0999 V2000
  -20.1904    0.2626   11.4317 O   0  0  0  0  0  0  0  0  0  0  0  0
  -19.8973    2.9604   10.4672 O   0  0  0  0  0  0  0  0  0  0  0  0
  -15.4618    1.2928   11.2011 O   0  0  0  0  0  0  0  0  0  0  0  0
  -17.1076   -2.9591    9.8391 O   0  0  0  0  0  0  0  0  0  0  0  0
  -19.5475    2.6114   11.8070 C   0  0  0  0  0  0  0  0  0  0  0  0
  -20.3819    1.4111   12.2734 C   0  0  0  0  0  0  0  0  0  0  0  0
  -18.0644    2.2504   11.8610 C   0  0  0  0  0  0  0  0  0  0  0  0
  -17.8256    0.8622   11.3309 C   0  0  0  0  0  0  0  0  0  0  0  0
  -18.8819   -0.0409   11.1570 C   0  0  0  0  0  0  0  0  0  0  0  0
  -16.5215    0.4522   11.0224 C   0  0  0  0  0  0  0  0  0  0  0  0
  -18.6413   -1.3183   10.6440 C   0  0  0  0  0  0  0  0  0  0  0  0
  -16.2812   -0.8285   10.5235 C   0  0  0  0  0  0  0  0  0  0  0  0
  -17.3413   -1.7116   10.3306 C   0  0  0  0  0  0  0  0  0  0  0  0
  -20.8388    3.1905   10.4283 H   0  0  0  0  0  0  0  0  0  0  0  0
  -15.6006    2.1572   11.5350 H   0  0  0  0  0  0  0  0  0  0  0  0
  -17.8209   -3.5528    9.7094 H   0  0  0  0  0  0  0  0  0  0  0  0
  -25.0810    0.2092   11.5614 O   0  0  0  0  0  0  0  0  0  0  0  0
  -25.8997    2.6746   12.5502 O   0  0  0  0  0  0  0  0  0  0  0  0
  -21.8601    1.7458   12.3467 C   0  0  0  0  0  0  0  0  0  0  0  0
  -22.8060    0.8167   11.9166 C   0  0  0  0  0  0  0  0  0  0  0  0
  -22.2694    2.9825   12.8432 C   0  0  0  0  0  0  0  0  0  0  0  0
  -24.1648    1.1249   11.9832 C   0  0  0  0  0  0  0  0  0  0  0  0
  -23.6281    3.2907   12.9096 C   0  0  0  0  0  0  0  0  0  0  0  0
  -24.5757    2.3620   12.4798 C   0  0  0  0  0  0  0  0  0  0  0  0
  -24.7965   -0.6194   11.2292 H   0  0  0  0  0  0  0  0  0  0  0  0
  -26.5430    2.0566   12.2636 H   0  0  0  0  0  0  0  0  0  0  0  0
  1  6  1  0  0  0
  1  9  1  0  0  0
  5  2  1  0  0  0
  3 10  1  0  0  0
  4 13  1  0  0  0
 17 22  1  0  0  0
 18 24  1  0  0  0
  5  6  1  0  0  0
  5  7  1  0  0  0
  6 19  1  0  0  0
  7  8  1  0  0  0
  8  9  1  0  0  0
  8 10  2  0  0  0
  9 11  2  0  0  0
 19 20  2  0  0  0
 19 21  1  0  0  0
 10 12  1  0  0  0
 11 13  1  0  0  0
 20 22  1  0  0  0
 21 23  2  0  0  0
 12 13  2  0  0  0
 22 24  2  0  0  0
 23 24  1  0  0  0
  2 14  1  0  0  0
  3 15  1  0  0  0
  4 16  1  0  0  0
 17 25  1  0  0  0
 18 26  1  0  0  0
M  END
> <PUBCHEM_COMPOUND_CID>
1203

> <PUBCHEM_CONFORMER_RMSD>
0.6

> <PUBCHEM_CONFORMER_DIVERSEORDER>
8
5
9
14
20
15
22
12
23
17
11
10
24
2
21
16
6
13
25
19
3
7
4
18
1

> <PUBCHEM_MMFF94_PARTIAL_CHARGES>
31
1 -0.36
10 -0.14
11 0.08
12 -0.14
13 0.08
14 -0.15
15 -0.15
16 -0.15
17 -0.15
18 0.08
19 0.08
2 -0.68
20 -0.15
21 0.08
26 0.15
27 0.15
28 0.4
29 0.15
3 -0.53
30 0.15
31 0.15
32 0.45
33 0.45
34 0.45
35 0.45
4 -0.53
5 -0.53
6 -0.53
7 0.28
8 0.42
9 0.14

> <PUBCHEM_EFFECTIVE_ROTOR_COUNT>
1.8

> <PUBCHEM_PHARMACOPHORE_FEATURES>
10
1 1 acceptor
1 2 acceptor
1 2 donor
1 3 donor
1 4 donor
1 5 donor
1 6 donor
6 1 7 8 9 10 11 rings
6 10 11 13 14 17 18 rings
6 12 15 16 19 20 21 rings

> <PUBCHEM_HEAVY_ATOM_COUNT>
21

> <PUBCHEM_ATOM_DEF_STEREO_COUNT>
0

> <PUBCHEM_ATOM_UDEF_STEREO_COUNT>
2

> <PUBCHEM_BOND_DEF_STEREO_COUNT>
0

> <PUBCHEM_BOND_UDEF_STEREO_COUNT>
0

> <PUBCHEM_ISOTOPIC_ATOM_COUNT>
0

> <PUBCHEM_COMPONENT_COUNT>
1

> <PUBCHEM_CACTVS_TAUTO_COUNT>
90

> <PUBCHEM_CONFORMER_ID>
000004B300000008

> <PUBCHEM_MMFF94_ENERGY>
59.9404

> <PUBCHEM_FEATURE_SELFOVERLAP>
50.784

> <PUBCHEM_SHAPE_FINGERPRINT>
10411042 1 17760649170835656874
10595046 47 18272650173132726693
10912923 1 18131070433053154673
11471102 20 18335420158296820614
12107183 9 17623298173428154049
12236239 1 18343865498709679005
12403259 415 17676203546268029317
12616971 3 18341895152128855567
13140716 1 18260550048012320250
13167823 11 18272931609354647903
13631057 29 18195521730727134063
13760787 5 18411416198563764037
14528608 73 18342739649772991876
14739800 52 17631717375208541968
15196674 1 18410857680758298039
15342168 16 18115315603953651644
15375358 24 16805318890594390677
15848702 151 18199189490457082542
17834072 33 18343863316497014711
18186145 218 18114180826280569534
19784866 240 16414931721270864054
200 152 18272085002918577055
204376 136 17968098658957293691
20612939 158 18409448076976460060
20645477 70 18410009914623425270
21033648 144 18261387883961142022
21033648 29 17095516288463219397
21267235 1 18341903939268225703
21709351 56 18339357444526035244
22079108 93 18114188553301158371
23402539 116 17846492621823497613
23402655 69 18342738554735380646
23557571 272 15123517951815092776
23558518 356 17391358781388228490
23559900 14 18335986441461387738
29717793 49 17988639658215480789
335352 9 18409169927158979030
34797466 226 15841269358428766528
4340502 62 17967825929435974331
474 4 18334859462826910644
5104073 3 18335421291698845043
542803 24 18412262835333585485
602551 16 15697420226518036815
633830 44 18335421244512200223
67856867 119 18201429307607216128
69090 78 18410290328484653302
7495541 125 16845281765792324683
8272917 22 18341618088104852166
9981440 41 17405693157234727560

> <PUBCHEM_SHAPE_MULTIPOLES>
396.95
11.38
2
1.01
5.2
0.08
-0.13
3.26
1.59
-2.45
-0.12
0.98
-0.17
-1.17

> <PUBCHEM_SHAPE_SELFOVERLAP>
876.493

> <PUBCHEM_SHAPE_VOLUME>
211.8

> <PUBCHEM_COORDINATE_TYPE>
2
5
10

> <minimizedAffinity>
-6.67629

> <CNNscore>
0.5333667397

> <CNNaffinity>
4.4560141563

> <CNN_VS>
2.3766896725

> <CNNaffinity_variance>
0.0508677587

$$$$
1203


 26 28  0  0  0  0  0  0  0  0999 V2000
  -22.8524   -3.2221   11.6012 O   0  0  0  0  0  0  0  0  0  0  0  0
  -25.3140   -4.7058   11.7849 O   0  0  0  0  0  0  0  0  0  0  0  0
  -22.1447   -7.5962    9.6415 O   0  0  0  0  0  0  0  0  0  0  0  0
  -18.8282   -5.5862   12.3988 O   0  0  0  0  0  0  0  0  0  0  0  0
  -24.7978   -4.2821   10.5227 C   0  0  0  0  0  0  0  0  0  0  0  0
  -23.9509   -3.0147   10.6988 C   0  0  0  0  0  0  0  0  0  0  0  0
  -23.9310   -5.3943    9.9357 C   0  0  0  0  0  0  0  0  0  0  0  0
  -22.5765   -5.4279   10.5910 C   0  0  0  0  0  0  0  0  0  0  0  0
  -22.1176   -4.3555   11.3663 C   0  0  0  0  0  0  0  0  0  0  0  0
  -21.7456   -6.5417   10.4096 C   0  0  0  0  0  0  0  0  0  0  0  0
  -20.8651   -4.4155   11.9831 C   0  0  0  0  0  0  0  0  0  0  0  0
  -20.4894   -6.5939   11.0147 C   0  0  0  0  0  0  0  0  0  0  0  0
  -20.0514   -5.5331   11.8043 C   0  0  0  0  0  0  0  0  0  0  0  0
  -25.8653   -4.0022   12.1615 H   0  0  0  0  0  0  0  0  0  0  0  0
  -22.9844   -7.5819    9.2260 H   0  0  0  0  0  0  0  0  0  0  0  0
  -18.5340   -4.8724   12.9298 H   0  0  0  0  0  0  0  0  0  0  0  0
  -27.4586    0.3270    9.9487 O   0  0  0  0  0  0  0  0  0  0  0  0
  -27.0585    1.3720   12.4931 O   0  0  0  0  0  0  0  0  0  0  0  0
  -24.7851   -1.8405   11.1762 C   0  0  0  0  0  0  0  0  0  0  0  0
  -25.7507   -1.2863   10.3374 C   0  0  0  0  0  0  0  0  0  0  0  0
  -24.5838   -1.3176   12.4527 C   0  0  0  0  0  0  0  0  0  0  0  0
  -26.5168   -0.2064   10.7760 C   0  0  0  0  0  0  0  0  0  0  0  0
  -25.3498   -0.2377   12.8913 C   0  0  0  0  0  0  0  0  0  0  0  0
  -26.3164    0.3178   12.0530 C   0  0  0  0  0  0  0  0  0  0  0  0
  -27.5869   -0.0311    9.0924 H   0  0  0  0  0  0  0  0  0  0  0  0
  -27.7099    1.7512   11.9365 H   0  0  0  0  0  0  0  0  0  0  0  0
  1  6  1  0  0  0
  1  9  1  0  0  0
  5  2  1  0  0  0
  3 10  1  0  0  0
  4 13  1  0  0  0
 17 22  1  0  0  0
 18 24  1  0  0  0
  5  6  1  0  0  0
  5  7  1  0  0  0
  6 19  1  0  0  0
  7  8  1  0  0  0
  8  9  1  0  0  0
  8 10  2  0  0  0
  9 11  2  0  0  0
 19 20  2  0  0  0
 19 21  1  0  0  0
 10 12  1  0  0  0
 11 13  1  0  0  0
 20 22  1  0  0  0
 21 23  2  0  0  0
 12 13  2  0  0  0
 22 24  2  0  0  0
 23 24  1  0  0  0
  2 14  1  0  0  0
  3 15  1  0  0  0
  4 16  1  0  0  0
 17 25  1  0  0  0
 18 26  1  0  0  0
M  END
> <PUBCHEM_COMPOUND_CID>
1203

> <PUBCHEM_CONFORMER_RMSD>
0.6

> <PUBCHEM_CONFORMER_DIVERSEORDER>
8
5
9
14
20
15
22
12
23
17
11
10
24
2
21
16
6
13
25
19
3
7
4
18
1

> <PUBCHEM_MMFF94_PARTIAL_CHARGES>
31
1 -0.36
10 -0.14
11 0.08
12 -0.14
13 0.08
14 -0.15
15 -0.15
16 -0.15
17 -0.15
18 0.08
19 0.08
2 -0.68
20 -0.15
21 0.08
26 0.15
27 0.15
28 0.4
29 0.15
3 -0.53
30 0.15
31 0.15
32 0.45
33 0.45
34 0.45
35 0.45
4 -0.53
5 -0.53
6 -0.53
7 0.28
8 0.42
9 0.14

> <PUBCHEM_EFFECTIVE_ROTOR_COUNT>
1.8

> <PUBCHEM_PHARMACOPHORE_FEATURES>
10
1 1 acceptor
1 2 acceptor
1 2 donor
1 3 donor
1 4 donor
1 5 donor
1 6 donor
6 1 7 8 9 10 11 rings
6 10 11 13 14 17 18 rings
6 12 15 16 19 20 21 rings

> <PUBCHEM_HEAVY_ATOM_COUNT>
21

> <PUBCHEM_ATOM_DEF_STEREO_COUNT>
0

> <PUBCHEM_ATOM_UDEF_STEREO_COUNT>
2

> <PUBCHEM_BOND_DEF_STEREO_COUNT>
0

> <PUBCHEM_BOND_UDEF_STEREO_COUNT>
0

> <PUBCHEM_ISOTOPIC_ATOM_COUNT>
0

> <PUBCHEM_COMPONENT_COUNT>
1

> <PUBCHEM_CACTVS_TAUTO_COUNT>
90

> <PUBCHEM_CONFORMER_ID>
000004B300000008

> <PUBCHEM_MMFF94_ENERGY>
59.9404

> <PUBCHEM_FEATURE_SELFOVERLAP>
50.784

> <PUBCHEM_SHAPE_FINGERPRINT>
10411042 1 17760649170835656874
10595046 47 18272650173132726693
10912923 1 18131070433053154673
11471102 20 18335420158296820614
12107183 9 17623298173428154049
12236239 1 18343865498709679005
12403259 415 17676203546268029317
12616971 3 18341895152128855567
13140716 1 18260550048012320250
13167823 11 18272931609354647903
13631057 29 18195521730727134063
13760787 5 18411416198563764037
14528608 73 18342739649772991876
14739800 52 17631717375208541968
15196674 1 18410857680758298039
15342168 16 18115315603953651644
15375358 24 16805318890594390677
15848702 151 18199189490457082542
17834072 33 18343863316497014711
18186145 218 18114180826280569534
19784866 240 16414931721270864054
200 152 18272085002918577055
204376 136 17968098658957293691
20612939 158 18409448076976460060
20645477 70 18410009914623425270
21033648 144 18261387883961142022
21033648 29 17095516288463219397
21267235 1 18341903939268225703
21709351 56 18339357444526035244
22079108 93 18114188553301158371
23402539 116 17846492621823497613
23402655 69 18342738554735380646
23557571 272 15123517951815092776
23558518 356 17391358781388228490
23559900 14 18335986441461387738
29717793 49 17988639658215480789
335352 9 18409169927158979030
34797466 226 15841269358428766528
4340502 62 17967825929435974331
474 4 18334859462826910644
5104073 3 18335421291698845043
542803 24 18412262835333585485
602551 16 15697420226518036815
633830 44 18335421244512200223
67856867 119 18201429307607216128
69090 78 18410290328484653302
7495541 125 16845281765792324683
8272917 22 18341618088104852166
9981440 41 17405693157234727560

> <PUBCHEM_SHAPE_MULTIPOLES>
396.95
11.38
2
1.01
5.2
0.08
-0.13
3.26
1.59
-2.45
-0.12
0.98
-0.17
-1.17

> <PUBCHEM_SHAPE_SELFOVERLAP>
876.493

> <PUBCHEM_SHAPE_VOLUME>
211.8

> <PUBCHEM_COORDINATE_TYPE>
2
5
10

> <minimizedAffinity>
-5.04093

> <CNNscore>
0.4626949728

> <CNNaffinity>
3.8342490196

> <CNN_VS>
1.7740877867

> <CNNaffinity_variance>
0.0966756567

$$$$
1203


 26 28  0  0  0  0  0  0  0  0999 V2000
  -21.5952    0.8567   11.3028 O   0  0  0  0  0  0  0  0  0  0  0  0
  -20.3428    1.4163   13.8352 O   0  0  0  0  0  0  0  0  0  0  0  0
  -24.3433    4.0558   13.6876 O   0  0  0  0  0  0  0  0  0  0  0  0
  -26.3143    0.4744   11.2523 O   0  0  0  0  0  0  0  0  0  0  0  0
  -20.4272    2.4122   12.8152 C   0  0  0  0  0  0  0  0  0  0  0  0
  -20.4756    1.7476   11.4330 C   0  0  0  0  0  0  0  0  0  0  0  0
  -21.6935    3.2399   13.0251 C   0  0  0  0  0  0  0  0  0  0  0  0
  -22.9109    2.4988   12.5415 C   0  0  0  0  0  0  0  0  0  0  0  0
  -22.7961    1.3738   11.7152 C   0  0  0  0  0  0  0  0  0  0  0  0
  -24.1872    2.9495   12.9048 C   0  0  0  0  0  0  0  0  0  0  0  0
  -23.9384    0.6877   11.2941 C   0  0  0  0  0  0  0  0  0  0  0  0
  -25.3273    2.2714   12.4719 C   0  0  0  0  0  0  0  0  0  0  0  0
  -25.2025    1.1388   11.6704 C   0  0  0  0  0  0  0  0  0  0  0  0
  -19.5396    0.8881   13.7057 H   0  0  0  0  0  0  0  0  0  0  0  0
  -23.5912    4.5262   13.9894 H   0  0  0  0  0  0  0  0  0  0  0  0
  -26.2299   -0.2873   10.7133 H   0  0  0  0  0  0  0  0  0  0  0  0
  -18.1223   -2.3485   10.1224 O   0  0  0  0  0  0  0  0  0  0  0  0
  -15.6768   -1.0361   10.2745 O   0  0  0  0  0  0  0  0  0  0  0  0
  -19.1927    0.9994   11.1216 C   0  0  0  0  0  0  0  0  0  0  0  0
  -19.2421   -0.3461   10.7607 C   0  0  0  0  0  0  0  0  0  0  0  0
  -17.9668    1.6589   11.1978 C   0  0  0  0  0  0  0  0  0  0  0  0
  -18.0627   -1.0341   10.4752 C   0  0  0  0  0  0  0  0  0  0  0  0
  -16.7875    0.9709   10.9125 C   0  0  0  0  0  0  0  0  0  0  0  0
  -16.8355   -0.3754   10.5512 C   0  0  0  0  0  0  0  0  0  0  0  0
  -18.9508   -2.7834   10.0738 H   0  0  0  0  0  0  0  0  0  0  0  0
  -15.6999   -1.9406   10.0309 H   0  0  0  0  0  0  0  0  0  0  0  0
  1  6  1  0  0  0
  1  9  1  0  0  0
  5  2  1  0  0  0
  3 10  1  0  0  0
  4 13  1  0  0  0
 17 22  1  0  0  0
 18 24  1  0  0  0
  5  6  1  0  0  0
  5  7  1  0  0  0
  6 19  1  0  0  0
  7  8  1  0  0  0
  8  9  1  0  0  0
  8 10  2  0  0  0
  9 11  2  0  0  0
 19 20  2  0  0  0
 19 21  1  0  0  0
 10 12  1  0  0  0
 11 13  1  0  0  0
 20 22  1  0  0  0
 21 23  2  0  0  0
 12 13  2  0  0  0
 22 24  2  0  0  0
 23 24  1  0  0  0
  2 14  1  0  0  0
  3 15  1  0  0  0
  4 16  1  0  0  0
 17 25  1  0  0  0
 18 26  1  0  0  0
M  END
> <PUBCHEM_COMPOUND_CID>
1203

> <PUBCHEM_CONFORMER_RMSD>
0.6

> <PUBCHEM_CONFORMER_DIVERSEORDER>
8
5
9
14
20
15
22
12
23
17
11
10
24
2
21
16
6
13
25
19
3
7
4
18
1

> <PUBCHEM_MMFF94_PARTIAL_CHARGES>
31
1 -0.36
10 -0.14
11 0.08
12 -0.14
13 0.08
14 -0.15
15 -0.15
16 -0.15
17 -0.15
18 0.08
19 0.08
2 -0.68
20 -0.15
21 0.08
26 0.15
27 0.15
28 0.4
29 0.15
3 -0.53
30 0.15
31 0.15
32 0.45
33 0.45
34 0.45
35 0.45
4 -0.53
5 -0.53
6 -0.53
7 0.28
8 0.42
9 0.14

> <PUBCHEM_EFFECTIVE_ROTOR_COUNT>
1.8

> <PUBCHEM_PHARMACOPHORE_FEATURES>
10
1 1 acceptor
1 2 acceptor
1 2 donor
1 3 donor
1 4 donor
1 5 donor
1 6 donor
6 1 7 8 9 10 11 rings
6 10 11 13 14 17 18 rings
6 12 15 16 19 20 21 rings

> <PUBCHEM_HEAVY_ATOM_COUNT>
21

> <PUBCHEM_ATOM_DEF_STEREO_COUNT>
0

> <PUBCHEM_ATOM_UDEF_STEREO_COUNT>
2

> <PUBCHEM_BOND_DEF_STEREO_COUNT>
0

> <PUBCHEM_BOND_UDEF_STEREO_COUNT>
0

> <PUBCHEM_ISOTOPIC_ATOM_COUNT>
0

> <PUBCHEM_COMPONENT_COUNT>
1

> <PUBCHEM_CACTVS_TAUTO_COUNT>
90

> <PUBCHEM_CONFORMER_ID>
000004B300000008

> <PUBCHEM_MMFF94_ENERGY>
59.9404

> <PUBCHEM_FEATURE_SELFOVERLAP>
50.784

> <PUBCHEM_SHAPE_FINGERPRINT>
10411042 1 17760649170835656874
10595046 47 18272650173132726693
10912923 1 18131070433053154673
11471102 20 18335420158296820614
12107183 9 17623298173428154049
12236239 1 18343865498709679005
12403259 415 17676203546268029317
12616971 3 18341895152128855567
13140716 1 18260550048012320250
13167823 11 18272931609354647903
13631057 29 18195521730727134063
13760787 5 18411416198563764037
14528608 73 18342739649772991876
14739800 52 17631717375208541968
15196674 1 18410857680758298039
15342168 16 18115315603953651644
15375358 24 16805318890594390677
15848702 151 18199189490457082542
17834072 33 18343863316497014711
18186145 218 18114180826280569534
19784866 240 16414931721270864054
200 152 18272085002918577055
204376 136 17968098658957293691
20612939 158 18409448076976460060
20645477 70 18410009914623425270
21033648 144 18261387883961142022
21033648 29 17095516288463219397
21267235 1 18341903939268225703
21709351 56 18339357444526035244
22079108 93 18114188553301158371
23402539 116 17846492621823497613
23402655 69 18342738554735380646
23557571 272 15123517951815092776
23558518 356 17391358781388228490
23559900 14 18335986441461387738
29717793 49 17988639658215480789
335352 9 18409169927158979030
34797466 226 15841269358428766528
4340502 62 17967825929435974331
474 4 18334859462826910644
5104073 3 18335421291698845043
542803 24 18412262835333585485
602551 16 15697420226518036815
633830 44 18335421244512200223
67856867 119 18201429307607216128
69090 78 18410290328484653302
7495541 125 16845281765792324683
8272917 22 18341618088104852166
9981440 41 17405693157234727560

> <PUBCHEM_SHAPE_MULTIPOLES>
396.95
11.38
2
1.01
5.2
0.08
-0.13
3.26
1.59
-2.45
-0.12
0.98
-0.17
-1.17

> <PUBCHEM_SHAPE_SELFOVERLAP>
876.493

> <PUBCHEM_SHAPE_VOLUME>
211.8

> <PUBCHEM_COORDINATE_TYPE>
2
5
10

> <minimizedAffinity>
-6.15864

> <CNNscore>
0.4617918730

> <CNNaffinity>
4.3521537781

> <CNN_VS>
2.0097892284

> <CNNaffinity_variance>
0.0670698807

$$$$
1203


 26 28  0  0  0  0  0  0  0  0999 V2000
  -23.9841   -6.3691    8.5305 O   0  0  0  0  0  0  0  0  0  0  0  0
  -21.5039   -5.6288    7.2674 O   0  0  0  0  0  0  0  0  0  0  0  0
  -23.0397   -9.5811    5.0283 O   0  0  0  0  0  0  0  0  0  0  0  0
  -27.4567   -7.9567    5.7305 O   0  0  0  0  0  0  0  0  0  0  0  0
  -21.6099   -6.8192    8.0492 C   0  0  0  0  0  0  0  0  0  0  0  0
  -22.7026   -6.6544    9.1138 C   0  0  0  0  0  0  0  0  0  0  0  0
  -21.9642   -7.9904    7.1352 C   0  0  0  0  0  0  0  0  0  0  0  0
  -23.4261   -7.9753    6.7781 C   0  0  0  0  0  0  0  0  0  0  0  0
  -24.3395   -7.1861    7.4884 C   0  0  0  0  0  0  0  0  0  0  0  0
  -23.8923   -8.7790    5.7290 C   0  0  0  0  0  0  0  0  0  0  0  0
  -25.6894   -7.1708    7.1275 C   0  0  0  0  0  0  0  0  0  0  0  0
  -25.2430   -8.7732    5.3789 C   0  0  0  0  0  0  0  0  0  0  0  0
  -26.1401   -7.9663    6.0753 C   0  0  0  0  0  0  0  0  0  0  0  0
  -21.2789   -4.8821    7.8443 H   0  0  0  0  0  0  0  0  0  0  0  0
  -22.1287   -9.6003    5.2467 H   0  0  0  0  0  0  0  0  0  0  0  0
  -28.0598   -7.4139    6.1991 H   0  0  0  0  0  0  0  0  0  0  0  0
  -19.5420   -4.5790   12.2342 O   0  0  0  0  0  0  0  0  0  0  0  0
  -21.4043   -2.6170   12.8733 O   0  0  0  0  0  0  0  0  0  0  0  0
  -22.3514   -5.5745   10.1204 C   0  0  0  0  0  0  0  0  0  0  0  0
  -21.0953   -5.5685   10.7246 C   0  0  0  0  0  0  0  0  0  0  0  0
  -23.2862   -4.5908   10.4397 C   0  0  0  0  0  0  0  0  0  0  0  0
  -20.7729   -4.5764   11.6505 C   0  0  0  0  0  0  0  0  0  0  0  0
  -22.9638   -3.5988   11.3656 C   0  0  0  0  0  0  0  0  0  0  0  0
  -21.7072   -3.5915   11.9709 C   0  0  0  0  0  0  0  0  0  0  0  0
  -18.9202   -5.2443   12.0134 H   0  0  0  0  0  0  0  0  0  0  0  0
  -20.5625   -2.6046   13.2846 H   0  0  0  0  0  0  0  0  0  0  0  0
  1  6  1  0  0  0
  1  9  1  0  0  0
  5  2  1  0  0  0
  3 10  1  0  0  0
  4 13  1  0  0  0
 17 22  1  0  0  0
 18 24  1  0  0  0
  5  6  1  0  0  0
  5  7  1  0  0  0
  6 19  1  0  0  0
  7  8  1  0  0  0
  8  9  1  0  0  0
  8 10  2  0  0  0
  9 11  2  0  0  0
 19 20  2  0  0  0
 19 21  1  0  0  0
 10 12  1  0  0  0
 11 13  1  0  0  0
 20 22  1  0  0  0
 21 23  2  0  0  0
 12 13  2  0  0  0
 22 24  2  0  0  0
 23 24  1  0  0  0
  2 14  1  0  0  0
  3 15  1  0  0  0
  4 16  1  0  0  0
 17 25  1  0  0  0
 18 26  1  0  0  0
M  END
> <PUBCHEM_COMPOUND_CID>
1203

> <PUBCHEM_CONFORMER_RMSD>
0.6

> <PUBCHEM_CONFORMER_DIVERSEORDER>
8
5
9
14
20
15
22
12
23
17
11
10
24
2
21
16
6
13
25
19
3
7
4
18
1

> <PUBCHEM_MMFF94_PARTIAL_CHARGES>
31
1 -0.36
10 -0.14
11 0.08
12 -0.14
13 0.08
14 -0.15
15 -0.15
16 -0.15
17 -0.15
18 0.08
19 0.08
2 -0.68
20 -0.15
21 0.08
26 0.15
27 0.15
28 0.4
29 0.15
3 -0.53
30 0.15
31 0.15
32 0.45
33 0.45
34 0.45
35 0.45
4 -0.53
5 -0.53
6 -0.53
7 0.28
8 0.42
9 0.14

> <PUBCHEM_EFFECTIVE_ROTOR_COUNT>
1.8

> <PUBCHEM_PHARMACOPHORE_FEATURES>
10
1 1 acceptor
1 2 acceptor
1 2 donor
1 3 donor
1 4 donor
1 5 donor
1 6 donor
6 1 7 8 9 10 11 rings
6 10 11 13 14 17 18 rings
6 12 15 16 19 20 21 rings

> <PUBCHEM_HEAVY_ATOM_COUNT>
21

> <PUBCHEM_ATOM_DEF_STEREO_COUNT>
0

> <PUBCHEM_ATOM_UDEF_STEREO_COUNT>
2

> <PUBCHEM_BOND_DEF_STEREO_COUNT>
0

> <PUBCHEM_BOND_UDEF_STEREO_COUNT>
0

> <PUBCHEM_ISOTOPIC_ATOM_COUNT>
0

> <PUBCHEM_COMPONENT_COUNT>
1

> <PUBCHEM_CACTVS_TAUTO_COUNT>
90

> <PUBCHEM_CONFORMER_ID>
000004B300000008

> <PUBCHEM_MMFF94_ENERGY>
59.9404

> <PUBCHEM_FEATURE_SELFOVERLAP>
50.784

> <PUBCHEM_SHAPE_FINGERPRINT>
10411042 1 17760649170835656874
10595046 47 18272650173132726693
10912923 1 18131070433053154673
11471102 20 18335420158296820614
12107183 9 17623298173428154049
12236239 1 18343865498709679005
12403259 415 17676203546268029317
12616971 3 18341895152128855567
13140716 1 18260550048012320250
13167823 11 18272931609354647903
13631057 29 18195521730727134063
13760787 5 18411416198563764037
14528608 73 18342739649772991876
14739800 52 17631717375208541968
15196674 1 18410857680758298039
15342168 16 18115315603953651644
15375358 24 16805318890594390677
15848702 151 18199189490457082542
17834072 33 18343863316497014711
18186145 218 18114180826280569534
19784866 240 16414931721270864054
200 152 18272085002918577055
204376 136 17968098658957293691
20612939 158 18409448076976460060
20645477 70 18410009914623425270
21033648 144 18261387883961142022
21033648 29 17095516288463219397
21267235 1 18341903939268225703
21709351 56 18339357444526035244
22079108 93 18114188553301158371
23402539 116 17846492621823497613
23402655 69 18342738554735380646
23557571 272 15123517951815092776
23558518 356 17391358781388228490
23559900 14 18335986441461387738
29717793 49 17988639658215480789
335352 9 18409169927158979030
34797466 226 15841269358428766528
4340502 62 17967825929435974331
474 4 18334859462826910644
5104073 3 18335421291698845043
542803 24 18412262835333585485
602551 16 15697420226518036815
633830 44 18335421244512200223
67856867 119 18201429307607216128
69090 78 18410290328484653302
7495541 125 16845281765792324683
8272917 22 18341618088104852166
9981440 41 17405693157234727560

> <PUBCHEM_SHAPE_MULTIPOLES>
396.95
11.38
2
1.01
5.2
0.08
-0.13
3.26
1.59
-2.45
-0.12
0.98
-0.17
-1.17

> <PUBCHEM_SHAPE_SELFOVERLAP>
876.493

> <PUBCHEM_SHAPE_VOLUME>
211.8

> <PUBCHEM_COORDINATE_TYPE>
2
5
10

> <minimizedAffinity>
-4.42819

> <CNNscore>
0.4614971578

> <CNNaffinity>
4.1983194351

> <CNN_VS>
1.9375125170

> <CNNaffinity_variance>
0.1638258100

$$$$
1203


 26 28  0  0  0  0  0  0  0  0999 V2000
  -18.6528   -2.8656   10.8588 O   0  0  0  0  0  0  0  0  0  0  0  0
  -19.2386   -1.1341   13.0845 O   0  0  0  0  0  0  0  0  0  0  0  0
  -22.8270   -4.3063   12.8524 O   0  0  0  0  0  0  0  0  0  0  0  0
  -19.5937   -7.4757   11.3887 O   0  0  0  0  0  0  0  0  0  0  0  0
  -20.0429   -1.1205   11.9045 C   0  0  0  0  0  0  0  0  0  0  0  0
  -19.2064   -1.5504   10.6921 C   0  0  0  0  0  0  0  0  0  0  0  0
  -21.2123   -2.0868   12.0828 C   0  0  0  0  0  0  0  0  0  0  0  0
  -20.7714   -3.5123   11.8863 C   0  0  0  0  0  0  0  0  0  0  0  0
  -19.5420   -3.8167   11.2883 C   0  0  0  0  0  0  0  0  0  0  0  0
  -21.6108   -4.5598   12.2888 C   0  0  0  0  0  0  0  0  0  0  0  0
  -19.1423   -5.1468   11.1339 C   0  0  0  0  0  0  0  0  0  0  0  0
  -21.2162   -5.8877   12.1210 C   0  0  0  0  0  0  0  0  0  0  0  0
  -19.9808   -6.1806   11.5477 C   0  0  0  0  0  0  0  0  0  0  0  0
  -18.4944   -0.5216   12.9756 H   0  0  0  0  0  0  0  0  0  0  0  0
  -23.1117   -3.4220   12.9743 H   0  0  0  0  0  0  0  0  0  0  0  0
  -18.7627   -7.6723   11.0030 H   0  0  0  0  0  0  0  0  0  0  0  0
  -17.6660    2.7839    8.9968 O   0  0  0  0  0  0  0  0  0  0  0  0
  -15.0330    2.1236    9.5949 O   0  0  0  0  0  0  0  0  0  0  0  0
  -18.0916   -0.5640   10.3976 C   0  0  0  0  0  0  0  0  0  0  0  0
  -18.3891    0.6720    9.8260 C   0  0  0  0  0  0  0  0  0  0  0  0
  -16.7715   -0.8962   10.6984 C   0  0  0  0  0  0  0  0  0  0  0  0
  -17.3641    1.5782    9.5544 C   0  0  0  0  0  0  0  0  0  0  0  0
  -15.7465    0.0099   10.4268 C   0  0  0  0  0  0  0  0  0  0  0  0
  -16.0428    1.2471    9.8549 C   0  0  0  0  0  0  0  0  0  0  0  0
  -18.5561    2.9985    8.7980 H   0  0  0  0  0  0  0  0  0  0  0  0
  -15.2232    2.9569    9.2109 H   0  0  0  0  0  0  0  0  0  0  0  0
  1  6  1  0  0  0
  1  9  1  0  0  0
  5  2  1  0  0  0
  3 10  1  0  0  0
  4 13  1  0  0  0
 17 22  1  0  0  0
 18 24  1  0  0  0
  5  6  1  0  0  0
  5  7  1  0  0  0
  6 19  1  0  0  0
  7  8  1  0  0  0
  8  9  1  0  0  0
  8 10  2  0  0  0
  9 11  2  0  0  0
 19 20  2  0  0  0
 19 21  1  0  0  0
 10 12  1  0  0  0
 11 13  1  0  0  0
 20 22  1  0  0  0
 21 23  2  0  0  0
 12 13  2  0  0  0
 22 24  2  0  0  0
 23 24  1  0  0  0
  2 14  1  0  0  0
  3 15  1  0  0  0
  4 16  1  0  0  0
 17 25  1  0  0  0
 18 26  1  0  0  0
M  END
> <PUBCHEM_COMPOUND_CID>
1203

> <PUBCHEM_CONFORMER_RMSD>
0.6

> <PUBCHEM_CONFORMER_DIVERSEORDER>
8
5
9
14
20
15
22
12
23
17
11
10
24
2
21
16
6
13
25
19
3
7
4
18
1

> <PUBCHEM_MMFF94_PARTIAL_CHARGES>
31
1 -0.36
10 -0.14
11 0.08
12 -0.14
13 0.08
14 -0.15
15 -0.15
16 -0.15
17 -0.15
18 0.08
19 0.08
2 -0.68
20 -0.15
21 0.08
26 0.15
27 0.15
28 0.4
29 0.15
3 -0.53
30 0.15
31 0.15
32 0.45
33 0.45
34 0.45
35 0.45
4 -0.53
5 -0.53
6 -0.53
7 0.28
8 0.42
9 0.14

> <PUBCHEM_EFFECTIVE_ROTOR_COUNT>
1.8

> <PUBCHEM_PHARMACOPHORE_FEATURES>
10
1 1 acceptor
1 2 acceptor
1 2 donor
1 3 donor
1 4 donor
1 5 donor
1 6 donor
6 1 7 8 9 10 11 rings
6 10 11 13 14 17 18 rings
6 12 15 16 19 20 21 rings

> <PUBCHEM_HEAVY_ATOM_COUNT>
21

> <PUBCHEM_ATOM_DEF_STEREO_COUNT>
0

> <PUBCHEM_ATOM_UDEF_STEREO_COUNT>
2

> <PUBCHEM_BOND_DEF_STEREO_COUNT>
0

> <PUBCHEM_BOND_UDEF_STEREO_COUNT>
0

> <PUBCHEM_ISOTOPIC_ATOM_COUNT>
0

> <PUBCHEM_COMPONENT_COUNT>
1

> <PUBCHEM_CACTVS_TAUTO_COUNT>
90

> <PUBCHEM_CONFORMER_ID>
000004B300000008

> <PUBCHEM_MMFF94_ENERGY>
59.9404

> <PUBCHEM_FEATURE_SELFOVERLAP>
50.784

> <PUBCHEM_SHAPE_FINGERPRINT>
10411042 1 17760649170835656874
10595046 47 18272650173132726693
10912923 1 18131070433053154673
11471102 20 18335420158296820614
12107183 9 17623298173428154049
12236239 1 18343865498709679005
12403259 415 17676203546268029317
12616971 3 18341895152128855567
13140716 1 18260550048012320250
13167823 11 18272931609354647903
13631057 29 18195521730727134063
13760787 5 18411416198563764037
14528608 73 18342739649772991876
14739800 52 17631717375208541968
15196674 1 18410857680758298039
15342168 16 18115315603953651644
15375358 24 16805318890594390677
15848702 151 18199189490457082542
17834072 33 18343863316497014711
18186145 218 18114180826280569534
19784866 240 16414931721270864054
200 152 18272085002918577055
204376 136 17968098658957293691
20612939 158 18409448076976460060
20645477 70 18410009914623425270
21033648 144 18261387883961142022
21033648 29 17095516288463219397
21267235 1 18341903939268225703
21709351 56 18339357444526035244
22079108 93 18114188553301158371
23402539 116 17846492621823497613
23402655 69 18342738554735380646
23557571 272 15123517951815092776
23558518 356 17391358781388228490
23559900 14 18335986441461387738
29717793 49 17988639658215480789
335352 9 18409169927158979030
34797466 226 15841269358428766528
4340502 62 17967825929435974331
474 4 18334859462826910644
5104073 3 18335421291698845043
542803 24 18412262835333585485
602551 16 15697420226518036815
633830 44 18335421244512200223
67856867 119 18201429307607216128
69090 78 18410290328484653302
7495541 125 16845281765792324683
8272917 22 18341618088104852166
9981440 41 17405693157234727560

> <PUBCHEM_SHAPE_MULTIPOLES>
396.95
11.38
2
1.01
5.2
0.08
-0.13
3.26
1.59
-2.45
-0.12
0.98
-0.17
-1.17

> <PUBCHEM_SHAPE_SELFOVERLAP>
876.493

> <PUBCHEM_SHAPE_VOLUME>
211.8

> <PUBCHEM_COORDINATE_TYPE>
2
5
10

> <minimizedAffinity>
-5.83093

> <CNNscore>
0.4402734637

> <CNNaffinity>
4.1733317375

> <CNN_VS>
1.8374072313

> <CNNaffinity_variance>
0.6858948469

$$$$
1203


 26 28  0  0  0  0  0  0  0  0999 V2000
  -22.4920   -6.8026    9.5939 O   0  0  0  0  0  0  0  0  0  0  0  0
  -23.1551   -4.7786    7.6553 O   0  0  0  0  0  0  0  0  0  0  0  0
  -21.8192   -2.4600   11.6342 O   0  0  0  0  0  0  0  0  0  0  0  0
  -18.7337   -6.0084   12.3624 O   0  0  0  0  0  0  0  0  0  0  0  0
  -23.9545   -4.9761    8.8220 C   0  0  0  0  0  0  0  0  0  0  0  0
  -23.8472   -6.4323    9.2936 C   0  0  0  0  0  0  0  0  0  0  0  0
  -23.4640   -4.0462    9.9300 C   0  0  0  0  0  0  0  0  0  0  0  0
  -22.2141   -4.5833   10.5737 C   0  0  0  0  0  0  0  0  0  0  0  0
  -21.8097   -5.9102   10.3800 C   0  0  0  0  0  0  0  0  0  0  0  0
  -21.4466   -3.7512   11.3997 C   0  0  0  0  0  0  0  0  0  0  0  0
  -20.6347   -6.3833   10.9702 C   0  0  0  0  0  0  0  0  0  0  0  0
  -20.2810   -4.2294   11.9996 C   0  0  0  0  0  0  0  0  0  0  0  0
  -19.8734   -5.5435   11.7814 C   0  0  0  0  0  0  0  0  0  0  0  0
  -23.4632   -5.3675    6.9487 H   0  0  0  0  0  0  0  0  0  0  0  0
  -22.5983   -2.1185   11.2414 H   0  0  0  0  0  0  0  0  0  0  0  0
  -18.4599   -6.8924   12.2154 H   0  0  0  0  0  0  0  0  0  0  0  0
  -23.2988  -10.1013    6.0888 O   0  0  0  0  0  0  0  0  0  0  0  0
  -26.0129  -10.0353    5.4926 O   0  0  0  0  0  0  0  0  0  0  0  0
  -24.4238   -7.3989    8.2758 C   0  0  0  0  0  0  0  0  0  0  0  0
  -23.5912   -8.3182    7.6399 C   0  0  0  0  0  0  0  0  0  0  0  0
  -25.7853   -7.3650    7.9780 C   0  0  0  0  0  0  0  0  0  0  0  0
  -24.1211   -9.2061    6.7037 C   0  0  0  0  0  0  0  0  0  0  0  0
  -26.3152   -8.2527    7.0418 C   0  0  0  0  0  0  0  0  0  0  0  0
  -25.4832   -9.1733    6.4047 C   0  0  0  0  0  0  0  0  0  0  0  0
  -22.3850  -10.1167    6.2954 H   0  0  0  0  0  0  0  0  0  0  0  0
  -25.4611  -10.6569    5.0600 H   0  0  0  0  0  0  0  0  0  0  0  0
  1  6  1  0  0  0
  1  9  1  0  0  0
  5  2  1  0  0  0
  3 10  1  0  0  0
  4 13  1  0  0  0
 17 22  1  0  0  0
 18 24  1  0  0  0
  5  6  1  0  0  0
  5  7  1  0  0  0
  6 19  1  0  0  0
  7  8  1  0  0  0
  8  9  1  0  0  0
  8 10  2  0  0  0
  9 11  2  0  0  0
 19 20  2  0  0  0
 19 21  1  0  0  0
 10 12  1  0  0  0
 11 13  1  0  0  0
 20 22  1  0  0  0
 21 23  2  0  0  0
 12 13  2  0  0  0
 22 24  2  0  0  0
 23 24  1  0  0  0
  2 14  1  0  0  0
  3 15  1  0  0  0
  4 16  1  0  0  0
 17 25  1  0  0  0
 18 26  1  0  0  0
M  END
> <PUBCHEM_COMPOUND_CID>
1203

> <PUBCHEM_CONFORMER_RMSD>
0.6

> <PUBCHEM_CONFORMER_DIVERSEORDER>
8
5
9
14
20
15
22
12
23
17
11
10
24
2
21
16
6
13
25
19
3
7
4
18
1

> <PUBCHEM_MMFF94_PARTIAL_CHARGES>
31
1 -0.36
10 -0.14
11 0.08
12 -0.14
13 0.08
14 -0.15
15 -0.15
16 -0.15
17 -0.15
18 0.08
19 0.08
2 -0.68
20 -0.15
21 0.08
26 0.15
27 0.15
28 0.4
29 0.15
3 -0.53
30 0.15
31 0.15
32 0.45
33 0.45
34 0.45
35 0.45
4 -0.53
5 -0.53
6 -0.53
7 0.28
8 0.42
9 0.14

> <PUBCHEM_EFFECTIVE_ROTOR_COUNT>
1.8

> <PUBCHEM_PHARMACOPHORE_FEATURES>
10
1 1 acceptor
1 2 acceptor
1 2 donor
1 3 donor
1 4 donor
1 5 donor
1 6 donor
6 1 7 8 9 10 11 rings
6 10 11 13 14 17 18 rings
6 12 15 16 19 20 21 rings

> <PUBCHEM_HEAVY_ATOM_COUNT>
21

> <PUBCHEM_ATOM_DEF_STEREO_COUNT>
0

> <PUBCHEM_ATOM_UDEF_STEREO_COUNT>
2

> <PUBCHEM_BOND_DEF_STEREO_COUNT>
0

> <PUBCHEM_BOND_UDEF_STEREO_COUNT>
0

> <PUBCHEM_ISOTOPIC_ATOM_COUNT>
0

> <PUBCHEM_COMPONENT_COUNT>
1

> <PUBCHEM_CACTVS_TAUTO_COUNT>
90

> <PUBCHEM_CONFORMER_ID>
000004B300000008

> <PUBCHEM_MMFF94_ENERGY>
59.9404

> <PUBCHEM_FEATURE_SELFOVERLAP>
50.784

> <PUBCHEM_SHAPE_FINGERPRINT>
10411042 1 17760649170835656874
10595046 47 18272650173132726693
10912923 1 18131070433053154673
11471102 20 18335420158296820614
12107183 9 17623298173428154049
12236239 1 18343865498709679005
12403259 415 17676203546268029317
12616971 3 18341895152128855567
13140716 1 18260550048012320250
13167823 11 18272931609354647903
13631057 29 18195521730727134063
13760787 5 18411416198563764037
14528608 73 18342739649772991876
14739800 52 17631717375208541968
15196674 1 18410857680758298039
15342168 16 18115315603953651644
15375358 24 16805318890594390677
15848702 151 18199189490457082542
17834072 33 18343863316497014711
18186145 218 18114180826280569534
19784866 240 16414931721270864054
200 152 18272085002918577055
204376 136 17968098658957293691
20612939 158 18409448076976460060
20645477 70 18410009914623425270
21033648 144 18261387883961142022
21033648 29 17095516288463219397
21267235 1 18341903939268225703
21709351 56 18339357444526035244
22079108 93 18114188553301158371
23402539 116 17846492621823497613
23402655 69 18342738554735380646
23557571 272 15123517951815092776
23558518 356 17391358781388228490
23559900 14 18335986441461387738
29717793 49 17988639658215480789
335352 9 18409169927158979030
34797466 226 15841269358428766528
4340502 62 17967825929435974331
474 4 18334859462826910644
5104073 3 18335421291698845043
542803 24 18412262835333585485
602551 16 15697420226518036815
633830 44 18335421244512200223
67856867 119 18201429307607216128
69090 78 18410290328484653302
7495541 125 16845281765792324683
8272917 22 18341618088104852166
9981440 41 17405693157234727560

> <PUBCHEM_SHAPE_MULTIPOLES>
396.95
11.38
2
1.01
5.2
0.08
-0.13
3.26
1.59
-2.45
-0.12
0.98
-0.17
-1.17

> <PUBCHEM_SHAPE_SELFOVERLAP>
876.493

> <PUBCHEM_SHAPE_VOLUME>
211.8

> <PUBCHEM_COORDINATE_TYPE>
2
5
10

> <minimizedAffinity>
-5.09709

> <CNNscore>
0.4146496952

> <CNNaffinity>
4.0232357979

> <CNN_VS>
1.6682335138

> <CNNaffinity_variance>
0.0592033491

$$$$
1203


 26 28  0  0  0  0  0  0  0  0999 V2000
  -23.7231   -4.3221    9.6901 O   0  0  0  0  0  0  0  0  0  0  0  0
  -23.5212   -5.9228   12.0758 O   0  0  0  0  0  0  0  0  0  0  0  0
  -23.6161   -8.9881    8.3896 O   0  0  0  0  0  0  0  0  0  0  0  0
  -21.2049   -5.7072    5.9272 O   0  0  0  0  0  0  0  0  0  0  0  0
  -24.7019   -5.9372   11.2727 C   0  0  0  0  0  0  0  0  0  0  0  0
  -24.8523   -4.6010   10.5335 C   0  0  0  0  0  0  0  0  0  0  0  0
  -24.6032   -7.0720   10.2551 C   0  0  0  0  0  0  0  0  0  0  0  0
  -23.7066   -6.6932    9.1072 C   0  0  0  0  0  0  0  0  0  0  0  0
  -23.3302   -5.3621    8.8877 C   0  0  0  0  0  0  0  0  0  0  0  0
  -23.2524   -7.6835    8.2257 C   0  0  0  0  0  0  0  0  0  0  0  0
  -22.4802   -5.0344    7.8281 C   0  0  0  0  0  0  0  0  0  0  0  0
  -22.4150   -7.3526    7.1598 C   0  0  0  0  0  0  0  0  0  0  0  0
  -22.0259   -6.0293    6.9638 C   0  0  0  0  0  0  0  0  0  0  0  0
  -23.5796   -5.2033   12.7237 H   0  0  0  0  0  0  0  0  0  0  0  0
  -24.1778   -9.2323    9.0988 H   0  0  0  0  0  0  0  0  0  0  0  0
  -20.9435   -4.8171    5.7957 H   0  0  0  0  0  0  0  0  0  0  0  0
  -23.3753   -0.3826   12.5476 O   0  0  0  0  0  0  0  0  0  0  0  0
  -25.6613   -0.2932   14.1263 O   0  0  0  0  0  0  0  0  0  0  0  0
  -25.0660   -3.4458   11.4939 C   0  0  0  0  0  0  0  0  0  0  0  0
  -24.1146   -2.4311   11.5843 C   0  0  0  0  0  0  0  0  0  0  0  0
  -26.2132   -3.4020   12.2848 C   0  0  0  0  0  0  0  0  0  0  0  0
  -24.3107   -1.3697   12.4679 C   0  0  0  0  0  0  0  0  0  0  0  0
  -26.4092   -2.3407   13.1684 C   0  0  0  0  0  0  0  0  0  0  0  0
  -25.4581   -1.3246   13.2599 C   0  0  0  0  0  0  0  0  0  0  0  0
  -22.6074   -0.4205   12.0120 H   0  0  0  0  0  0  0  0  0  0  0  0
  -25.0275    0.3935   14.1940 H   0  0  0  0  0  0  0  0  0  0  0  0
  1  6  1  0  0  0
  1  9  1  0  0  0
  5  2  1  0  0  0
  3 10  1  0  0  0
  4 13  1  0  0  0
 17 22  1  0  0  0
 18 24  1  0  0  0
  5  6  1  0  0  0
  5  7  1  0  0  0
  6 19  1  0  0  0
  7  8  1  0  0  0
  8  9  1  0  0  0
  8 10  2  0  0  0
  9 11  2  0  0  0
 19 20  2  0  0  0
 19 21  1  0  0  0
 10 12  1  0  0  0
 11 13  1  0  0  0
 20 22  1  0  0  0
 21 23  2  0  0  0
 12 13  2  0  0  0
 22 24  2  0  0  0
 23 24  1  0  0  0
  2 14  1  0  0  0
  3 15  1  0  0  0
  4 16  1  0  0  0
 17 25  1  0  0  0
 18 26  1  0  0  0
M  END
> <PUBCHEM_COMPOUND_CID>
1203

> <PUBCHEM_CONFORMER_RMSD>
0.6

> <PUBCHEM_CONFORMER_DIVERSEORDER>
8
5
9
14
20
15
22
12
23
17
11
10
24
2
21
16
6
13
25
19
3
7
4
18
1

> <PUBCHEM_MMFF94_PARTIAL_CHARGES>
31
1 -0.36
10 -0.14
11 0.08
12 -0.14
13 0.08
14 -0.15
15 -0.15
16 -0.15
17 -0.15
18 0.08
19 0.08
2 -0.68
20 -0.15
21 0.08
26 0.15
27 0.15
28 0.4
29 0.15
3 -0.53
30 0.15
31 0.15
32 0.45
33 0.45
34 0.45
35 0.45
4 -0.53
5 -0.53
6 -0.53
7 0.28
8 0.42
9 0.14

> <PUBCHEM_EFFECTIVE_ROTOR_COUNT>
1.8

> <PUBCHEM_PHARMACOPHORE_FEATURES>
10
1 1 acceptor
1 2 acceptor
1 2 donor
1 3 donor
1 4 donor
1 5 donor
1 6 donor
6 1 7 8 9 10 11 rings
6 10 11 13 14 17 18 rings
6 12 15 16 19 20 21 rings

> <PUBCHEM_HEAVY_ATOM_COUNT>
21

> <PUBCHEM_ATOM_DEF_STEREO_COUNT>
0

> <PUBCHEM_ATOM_UDEF_STEREO_COUNT>
2

> <PUBCHEM_BOND_DEF_STEREO_COUNT>
0

> <PUBCHEM_BOND_UDEF_STEREO_COUNT>
0

> <PUBCHEM_ISOTOPIC_ATOM_COUNT>
0

> <PUBCHEM_COMPONENT_COUNT>
1

> <PUBCHEM_CACTVS_TAUTO_COUNT>
90

> <PUBCHEM_CONFORMER_ID>
000004B300000008

> <PUBCHEM_MMFF94_ENERGY>
59.9404

> <PUBCHEM_FEATURE_SELFOVERLAP>
50.784

> <PUBCHEM_SHAPE_FINGERPRINT>
10411042 1 17760649170835656874
10595046 47 18272650173132726693
10912923 1 18131070433053154673
11471102 20 18335420158296820614
12107183 9 17623298173428154049
12236239 1 18343865498709679005
12403259 415 17676203546268029317
12616971 3 18341895152128855567
13140716 1 18260550048012320250
13167823 11 18272931609354647903
13631057 29 18195521730727134063
13760787 5 18411416198563764037
14528608 73 18342739649772991876
14739800 52 17631717375208541968
15196674 1 18410857680758298039
15342168 16 18115315603953651644
15375358 24 16805318890594390677
15848702 151 18199189490457082542
17834072 33 18343863316497014711
18186145 218 18114180826280569534
19784866 240 16414931721270864054
200 152 18272085002918577055
204376 136 17968098658957293691
20612939 158 18409448076976460060
20645477 70 18410009914623425270
21033648 144 18261387883961142022
21033648 29 17095516288463219397
21267235 1 18341903939268225703
21709351 56 18339357444526035244
22079108 93 18114188553301158371
23402539 116 17846492621823497613
23402655 69 18342738554735380646
23557571 272 15123517951815092776
23558518 356 17391358781388228490
23559900 14 18335986441461387738
29717793 49 17988639658215480789
335352 9 18409169927158979030
34797466 226 15841269358428766528
4340502 62 17967825929435974331
474 4 18334859462826910644
5104073 3 18335421291698845043
542803 24 18412262835333585485
602551 16 15697420226518036815
633830 44 18335421244512200223
67856867 119 18201429307607216128
69090 78 18410290328484653302
7495541 125 16845281765792324683
8272917 22 18341618088104852166
9981440 41 17405693157234727560

> <PUBCHEM_SHAPE_MULTIPOLES>
396.95
11.38
2
1.01
5.2
0.08
-0.13
3.26
1.59
-2.45
-0.12
0.98
-0.17
-1.17

> <PUBCHEM_SHAPE_SELFOVERLAP>
876.493

> <PUBCHEM_SHAPE_VOLUME>
211.8

> <PUBCHEM_COORDINATE_TYPE>
2
5
10

> <minimizedAffinity>
-5.96933

> <CNNscore>
0.4052314758

> <CNNaffinity>
3.6660232544

> <CNN_VS>
1.4855879545

> <CNNaffinity_variance>
0.1417375803

$$$$
1203


 26 28  0  0  0  0  0  0  0  0999 V2000
  -21.3709    0.3852   11.5571 O   0  0  0  0  0  0  0  0  0  0  0  0
  -21.3515   -2.4639   11.1362 O   0  0  0  0  0  0  0  0  0  0  0  0
  -25.2361   -1.5098   13.7806 O   0  0  0  0  0  0  0  0  0  0  0  0
  -25.5628    2.5788   11.3685 O   0  0  0  0  0  0  0  0  0  0  0  0
  -21.1343   -1.9058   12.4326 C   0  0  0  0  0  0  0  0  0  0  0  0
  -20.5261   -0.5027   12.3067 C   0  0  0  0  0  0  0  0  0  0  0  0
  -22.4684   -1.8165   13.1708 C   0  0  0  0  0  0  0  0  0  0  0  0
  -23.2753   -0.6405   12.6902 C   0  0  0  0  0  0  0  0  0  0  0  0
  -22.6900    0.3807   11.9310 C   0  0  0  0  0  0  0  0  0  0  0  0
  -24.6338   -0.5491   13.0220 C   0  0  0  0  0  0  0  0  0  0  0  0
  -23.4617    1.4536   11.4770 C   0  0  0  0  0  0  0  0  0  0  0  0
  -25.3997    0.5301   12.5797 C   0  0  0  0  0  0  0  0  0  0  0  0
  -24.8146    1.5287   11.8042 C   0  0  0  0  0  0  0  0  0  0  0  0
  -20.5065   -2.5225   10.6636 H   0  0  0  0  0  0  0  0  0  0  0  0
  -24.7404   -2.2431   14.0881 H   0  0  0  0  0  0  0  0  0  0  0  0
  -25.1689    3.2502   10.8469 H   0  0  0  0  0  0  0  0  0  0  0  0
  -17.0359   -2.8467    9.7853 O   0  0  0  0  0  0  0  0  0  0  0  0
  -15.3661   -0.6320    9.9663 O   0  0  0  0  0  0  0  0  0  0  0  0
  -19.1454   -0.5406   11.6784 C   0  0  0  0  0  0  0  0  0  0  0  0
  -18.7154   -1.6869   11.0121 C   0  0  0  0  0  0  0  0  0  0  0  0
  -18.3090    0.5711   11.7695 C   0  0  0  0  0  0  0  0  0  0  0  0
  -17.4458   -1.7219   10.4353 C   0  0  0  0  0  0  0  0  0  0  0  0
  -17.0395    0.5360   11.1929 C   0  0  0  0  0  0  0  0  0  0  0  0
  -16.6080   -0.6103   10.5258 C   0  0  0  0  0  0  0  0  0  0  0  0
  -17.6049   -3.5890    9.7291 H   0  0  0  0  0  0  0  0  0  0  0  0
  -15.0682   -1.3980    9.5163 H   0  0  0  0  0  0  0  0  0  0  0  0
  1  6  1  0  0  0
  1  9  1  0  0  0
  5  2  1  0  0  0
  3 10  1  0  0  0
  4 13  1  0  0  0
 17 22  1  0  0  0
 18 24  1  0  0  0
  5  6  1  0  0  0
  5  7  1  0  0  0
  6 19  1  0  0  0
  7  8  1  0  0  0
  8  9  1  0  0  0
  8 10  2  0  0  0
  9 11  2  0  0  0
 19 20  2  0  0  0
 19 21  1  0  0  0
 10 12  1  0  0  0
 11 13  1  0  0  0
 20 22  1  0  0  0
 21 23  2  0  0  0
 12 13  2  0  0  0
 22 24  2  0  0  0
 23 24  1  0  0  0
  2 14  1  0  0  0
  3 15  1  0  0  0
  4 16  1  0  0  0
 17 25  1  0  0  0
 18 26  1  0  0  0
M  END
> <PUBCHEM_COMPOUND_CID>
1203

> <PUBCHEM_CONFORMER_RMSD>
0.6

> <PUBCHEM_CONFORMER_DIVERSEORDER>
8
5
9
14
20
15
22
12
23
17
11
10
24
2
21
16
6
13
25
19
3
7
4
18
1

> <PUBCHEM_MMFF94_PARTIAL_CHARGES>
31
1 -0.36
10 -0.14
11 0.08
12 -0.14
13 0.08
14 -0.15
15 -0.15
16 -0.15
17 -0.15
18 0.08
19 0.08
2 -0.68
20 -0.15
21 0.08
26 0.15
27 0.15
28 0.4
29 0.15
3 -0.53
30 0.15
31 0.15
32 0.45
33 0.45
34 0.45
35 0.45
4 -0.53
5 -0.53
6 -0.53
7 0.28
8 0.42
9 0.14

> <PUBCHEM_EFFECTIVE_ROTOR_COUNT>
1.8

> <PUBCHEM_PHARMACOPHORE_FEATURES>
10
1 1 acceptor
1 2 acceptor
1 2 donor
1 3 donor
1 4 donor
1 5 donor
1 6 donor
6 1 7 8 9 10 11 rings
6 10 11 13 14 17 18 rings
6 12 15 16 19 20 21 rings

> <PUBCHEM_HEAVY_ATOM_COUNT>
21

> <PUBCHEM_ATOM_DEF_STEREO_COUNT>
0

> <PUBCHEM_ATOM_UDEF_STEREO_COUNT>
2

> <PUBCHEM_BOND_DEF_STEREO_COUNT>
0

> <PUBCHEM_BOND_UDEF_STEREO_COUNT>
0

> <PUBCHEM_ISOTOPIC_ATOM_COUNT>
0

> <PUBCHEM_COMPONENT_COUNT>
1

> <PUBCHEM_CACTVS_TAUTO_COUNT>
90

> <PUBCHEM_CONFORMER_ID>
000004B300000008

> <PUBCHEM_MMFF94_ENERGY>
59.9404

> <PUBCHEM_FEATURE_SELFOVERLAP>
50.784

> <PUBCHEM_SHAPE_FINGERPRINT>
10411042 1 17760649170835656874
10595046 47 18272650173132726693
10912923 1 18131070433053154673
11471102 20 18335420158296820614
12107183 9 17623298173428154049
12236239 1 18343865498709679005
12403259 415 17676203546268029317
12616971 3 18341895152128855567
13140716 1 18260550048012320250
13167823 11 18272931609354647903
13631057 29 18195521730727134063
13760787 5 18411416198563764037
14528608 73 18342739649772991876
14739800 52 17631717375208541968
15196674 1 18410857680758298039
15342168 16 18115315603953651644
15375358 24 16805318890594390677
15848702 151 18199189490457082542
17834072 33 18343863316497014711
18186145 218 18114180826280569534
19784866 240 16414931721270864054
200 152 18272085002918577055
204376 136 17968098658957293691
20612939 158 18409448076976460060
20645477 70 18410009914623425270
21033648 144 18261387883961142022
21033648 29 17095516288463219397
21267235 1 18341903939268225703
21709351 56 18339357444526035244
22079108 93 18114188553301158371
23402539 116 17846492621823497613
23402655 69 18342738554735380646
23557571 272 15123517951815092776
23558518 356 17391358781388228490
23559900 14 18335986441461387738
29717793 49 17988639658215480789
335352 9 18409169927158979030
34797466 226 15841269358428766528
4340502 62 17967825929435974331
474 4 18334859462826910644
5104073 3 18335421291698845043
542803 24 18412262835333585485
602551 16 15697420226518036815
633830 44 18335421244512200223
67856867 119 18201429307607216128
69090 78 18410290328484653302
7495541 125 16845281765792324683
8272917 22 18341618088104852166
9981440 41 17405693157234727560

> <PUBCHEM_SHAPE_MULTIPOLES>
396.95
11.38
2
1.01
5.2
0.08
-0.13
3.26
1.59
-2.45
-0.12
0.98
-0.17
-1.17

> <PUBCHEM_SHAPE_SELFOVERLAP>
876.493

> <PUBCHEM_SHAPE_VOLUME>
211.8

> <PUBCHEM_COORDINATE_TYPE>
2
5
10

> <minimizedAffinity>
-5.67921

> <CNNscore>
0.4050979912

> <CNNaffinity>
4.3670034409

> <CNN_VS>
1.7690643072

> <CNNaffinity_variance>
0.0597111210

$$$$
1203


 26 28  0  0  0  0  0  0  0  0999 V2000
  -23.1658   -4.7526    9.0926 O   0  0  0  0  0  0  0  0  0  0  0  0
  -22.6425   -6.6696   11.1772 O   0  0  0  0  0  0  0  0  0  0  0  0
  -26.8619   -7.8813    9.2481 O   0  0  0  0  0  0  0  0  0  0  0  0
  -25.1071   -6.3741    5.0899 O   0  0  0  0  0  0  0  0  0  0  0  0
  -23.7056   -5.7230   11.2922 C   0  0  0  0  0  0  0  0  0  0  0  0
  -23.3767   -4.4611   10.4835 C   0  0  0  0  0  0  0  0  0  0  0  0
  -24.9934   -6.3469   10.7581 C   0  0  0  0  0  0  0  0  0  0  0  0
  -25.0152   -6.3389    9.2533 C   0  0  0  0  0  0  0  0  0  0  0  0
  -24.1218   -5.5498    8.5178 C   0  0  0  0  0  0  0  0  0  0  0  0
  -25.9579   -7.1181    8.5690 C   0  0  0  0  0  0  0  0  0  0  0  0
  -24.1451   -5.5726    7.1208 C   0  0  0  0  0  0  0  0  0  0  0  0
  -25.9889   -7.1289    7.1740 C   0  0  0  0  0  0  0  0  0  0  0  0
  -25.0802   -6.3597    6.4506 C   0  0  0  0  0  0  0  0  0  0  0  0
  -21.8224   -6.2774   11.5154 H   0  0  0  0  0  0  0  0  0  0  0  0
  -26.8587   -7.8889   10.1851 H   0  0  0  0  0  0  0  0  0  0  0  0
  -24.4958   -5.8566    4.6037 H   0  0  0  0  0  0  0  0  0  0  0  0
  -18.5634   -3.5311   10.4618 O   0  0  0  0  0  0  0  0  0  0  0  0
  -18.8620   -1.7431   12.5691 O   0  0  0  0  0  0  0  0  0  0  0  0
  -22.1658   -3.7347   11.0390 C   0  0  0  0  0  0  0  0  0  0  0  0
  -20.9045   -3.9659   10.4926 C   0  0  0  0  0  0  0  0  0  0  0  0
  -22.3170   -2.8379   12.0956 C   0  0  0  0  0  0  0  0  0  0  0  0
  -19.7914   -3.2987   11.0040 C   0  0  0  0  0  0  0  0  0  0  0  0
  -21.2039   -2.1708   12.6070 C   0  0  0  0  0  0  0  0  0  0  0  0
  -19.9412   -2.4011   12.0612 C   0  0  0  0  0  0  0  0  0  0  0  0
  -18.4715   -4.1356    9.7518 H   0  0  0  0  0  0  0  0  0  0  0  0
  -18.0101   -1.8920   12.2083 H   0  0  0  0  0  0  0  0  0  0  0  0
  1  6  1  0  0  0
  1  9  1  0  0  0
  5  2  1  0  0  0
  3 10  1  0  0  0
  4 13  1  0  0  0
 17 22  1  0  0  0
 18 24  1  0  0  0
  5  6  1  0  0  0
  5  7  1  0  0  0
  6 19  1  0  0  0
  7  8  1  0  0  0
  8  9  1  0  0  0
  8 10  2  0  0  0
  9 11  2  0  0  0
 19 20  2  0  0  0
 19 21  1  0  0  0
 10 12  1  0  0  0
 11 13  1  0  0  0
 20 22  1  0  0  0
 21 23  2  0  0  0
 12 13  2  0  0  0
 22 24  2  0  0  0
 23 24  1  0  0  0
  2 14  1  0  0  0
  3 15  1  0  0  0
  4 16  1  0  0  0
 17 25  1  0  0  0
 18 26  1  0  0  0
M  END
> <PUBCHEM_COMPOUND_CID>
1203

> <PUBCHEM_CONFORMER_RMSD>
0.6

> <PUBCHEM_CONFORMER_DIVERSEORDER>
8
5
9
14
20
15
22
12
23
17
11
10
24
2
21
16
6
13
25
19
3
7
4
18
1

> <PUBCHEM_MMFF94_PARTIAL_CHARGES>
31
1 -0.36
10 -0.14
11 0.08
12 -0.14
13 0.08
14 -0.15
15 -0.15
16 -0.15
17 -0.15
18 0.08
19 0.08
2 -0.68
20 -0.15
21 0.08
26 0.15
27 0.15
28 0.4
29 0.15
3 -0.53
30 0.15
31 0.15
32 0.45
33 0.45
34 0.45
35 0.45
4 -0.53
5 -0.53
6 -0.53
7 0.28
8 0.42
9 0.14

> <PUBCHEM_EFFECTIVE_ROTOR_COUNT>
1.8

> <PUBCHEM_PHARMACOPHORE_FEATURES>
10
1 1 acceptor
1 2 acceptor
1 2 donor
1 3 donor
1 4 donor
1 5 donor
1 6 donor
6 1 7 8 9 10 11 rings
6 10 11 13 14 17 18 rings
6 12 15 16 19 20 21 rings

> <PUBCHEM_HEAVY_ATOM_COUNT>
21

> <PUBCHEM_ATOM_DEF_STEREO_COUNT>
0

> <PUBCHEM_ATOM_UDEF_STEREO_COUNT>
2

> <PUBCHEM_BOND_DEF_STEREO_COUNT>
0

> <PUBCHEM_BOND_UDEF_STEREO_COUNT>
0

> <PUBCHEM_ISOTOPIC_ATOM_COUNT>
0

> <PUBCHEM_COMPONENT_COUNT>
1

> <PUBCHEM_CACTVS_TAUTO_COUNT>
90

> <PUBCHEM_CONFORMER_ID>
000004B300000008

> <PUBCHEM_MMFF94_ENERGY>
59.9404

> <PUBCHEM_FEATURE_SELFOVERLAP>
50.784

> <PUBCHEM_SHAPE_FINGERPRINT>
10411042 1 17760649170835656874
10595046 47 18272650173132726693
10912923 1 18131070433053154673
11471102 20 18335420158296820614
12107183 9 17623298173428154049
12236239 1 18343865498709679005
12403259 415 17676203546268029317
12616971 3 18341895152128855567
13140716 1 18260550048012320250
13167823 11 18272931609354647903
13631057 29 18195521730727134063
13760787 5 18411416198563764037
14528608 73 18342739649772991876
14739800 52 17631717375208541968
15196674 1 18410857680758298039
15342168 16 18115315603953651644
15375358 24 16805318890594390677
15848702 151 18199189490457082542
17834072 33 18343863316497014711
18186145 218 18114180826280569534
19784866 240 16414931721270864054
200 152 18272085002918577055
204376 136 17968098658957293691
20612939 158 18409448076976460060
20645477 70 18410009914623425270
21033648 144 18261387883961142022
21033648 29 17095516288463219397
21267235 1 18341903939268225703
21709351 56 18339357444526035244
22079108 93 18114188553301158371
23402539 116 17846492621823497613
23402655 69 18342738554735380646
23557571 272 15123517951815092776
23558518 356 17391358781388228490
23559900 14 18335986441461387738
29717793 49 17988639658215480789
335352 9 18409169927158979030
34797466 226 15841269358428766528
4340502 62 17967825929435974331
474 4 18334859462826910644
5104073 3 18335421291698845043
542803 24 18412262835333585485
602551 16 15697420226518036815
633830 44 18335421244512200223
67856867 119 18201429307607216128
69090 78 18410290328484653302
7495541 125 16845281765792324683
8272917 22 18341618088104852166
9981440 41 17405693157234727560

> <PUBCHEM_SHAPE_MULTIPOLES>
396.95
11.38
2
1.01
5.2
0.08
-0.13
3.26
1.59
-2.45
-0.12
0.98
-0.17
-1.17

> <PUBCHEM_SHAPE_SELFOVERLAP>
876.493

> <PUBCHEM_SHAPE_VOLUME>
211.8

> <PUBCHEM_COORDINATE_TYPE>
2
5
10

> <minimizedAffinity>
-4.92978

> <CNNscore>
0.3923311830

> <CNNaffinity>
4.0851650238

> <CNN_VS>
1.6027376652

> <CNNaffinity_variance>
0.1558495313

$$$$
