31553


 40 44  0  0  0  0  0  0  0  0999 V2000
  -20.4096   -2.9389   14.1952 O   0  0  0  0  0  0  0  0  0  0  0  0
  -18.7567   -1.3496   12.4555 O   0  0  0  0  0  0  0  0  0  0  0  0
  -19.3912   -2.0531   14.6932 C   0  0  0  0  0  0  0  0  0  0  0  0
  -19.2131   -0.8670   13.7313 C   0  0  0  0  0  0  0  0  0  0  0  0
  -20.9076   -4.5876   10.9882 C   0  0  0  0  0  0  0  0  0  0  0  0
  -20.2814   -3.1926   12.8569 C   0  0  0  0  0  0  0  0  0  0  0  0
  -19.4728   -2.4290   12.0160 C   0  0  0  0  0  0  0  0  0  0  0  0
  -21.0116   -4.2636   12.3410 C   0  0  0  0  0  0  0  0  0  0  0  0
  -20.0769   -3.8409   10.1526 C   0  0  0  0  0  0  0  0  0  0  0  0
  -19.3574   -2.7618   10.6660 C   0  0  0  0  0  0  0  0  0  0  0  0
  -23.0860   -5.4116   10.5068 O   0  0  0  0  0  0  0  0  0  0  0  0
  -19.9247   -6.4703    8.9419 O   0  0  0  0  0  0  0  0  0  0  0  0
  -21.7127   -8.0738    7.7017 O   0  0  0  0  0  0  0  0  0  0  0  0
  -24.0895   -9.1059    7.5136 O   0  0  0  0  0  0  0  0  0  0  0  0
  -27.4579   -7.2239   10.2762 O   0  0  0  0  0  0  0  0  0  0  0  0
  -21.6941   -5.7569   10.4261 C   0  0  0  0  0  0  0  0  0  0  0  0
  -21.2850   -6.0762    8.9872 C   0  0  0  0  0  0  0  0  0  0  0  0
  -22.1272   -7.2293    8.4868 C   0  0  0  0  0  0  0  0  0  0  0  0
  -23.5189   -7.2623    8.9777 C   0  0  0  0  0  0  0  0  0  0  0  0
  -23.9214   -6.3411    9.9472 C   0  0  0  0  0  0  0  0  0  0  0  0
  -24.4308   -8.1852    8.4580 C   0  0  0  0  0  0  0  0  0  0  0  0
  -25.2506   -6.3209   10.3727 C   0  0  0  0  0  0  0  0  0  0  0  0
  -26.1641   -7.2385    9.8529 C   0  0  0  0  0  0  0  0  0  0  0  0
  -25.7536   -8.1717    8.9010 C   0  0  0  0  0  0  0  0  0  0  0  0
  -19.3667   -5.7432    9.2594 H   0  0  0  0  0  0  0  0  0  0  0  0
  -23.2100   -9.1439    7.1926 H   0  0  0  0  0  0  0  0  0  0  0  0
  -27.7346   -6.5973   10.9156 H   0  0  0  0  0  0  0  0  0  0  0  0
  -20.9473   -0.5274   19.9217 O   0  0  0  0  0  0  0  0  0  0  0  0
  -19.8071   -1.6487   16.0907 C   0  0  0  0  0  0  0  0  0  0  0  0
  -20.0590   -2.6263   17.0530 C   0  0  0  0  0  0  0  0  0  0  0  0
  -19.9385   -0.2988   16.4157 C   0  0  0  0  0  0  0  0  0  0  0  0
  -20.4429   -2.2536   18.3412 C   0  0  0  0  0  0  0  0  0  0  0  0
  -20.3224    0.0738   17.7038 C   0  0  0  0  0  0  0  0  0  0  0  0
  -20.5745   -0.9035   18.6666 C   0  0  0  0  0  0  0  0  0  0  0  0
  -21.1184   -1.1778   20.5742 H   0  0  0  0  0  0  0  0  0  0  0  0
  -20.6855   -3.2170   19.2730 O   0  0  0  0  0  0  0  0  0  0  0  0
  -22.0447   -3.4248   19.6520 C   0  0  0  0  0  0  0  0  0  0  0  0
  -17.4684    0.6302   13.0818 O   0  0  0  0  0  0  0  0  0  0  0  0
  -18.1670    0.1362   14.2095 C   0  0  0  0  0  0  0  0  0  0  0  0
  -16.7991    1.2701   13.3708 H   0  0  0  0  0  0  0  0  0  0  0  0
  1  3  1  0  0  0
  1  6  1  0  0  0
  2  4  1  0  0  0
  2  7  1  0  0  0
 11 16  1  0  0  0
 11 20  1  0  0  0
 17 12  1  0  0  0
 38 39  1  0  0  0
 13 18  2  0  0  0
 14 21  1  0  0  0
 36 32  1  0  0  0
 36 37  1  0  0  0
 15 23  1  0  0  0
 28 34  1  0  0  0
  3  4  1  0  0  0
  3 29  1  0  0  0
  4 39  1  0  0  0
 16  5  1  0  0  0
 16 17  1  0  0  0
  5  8  2  0  0  0
  5  9  1  0  0  0
 17 18  1  0  0  0
  6  7  2  0  0  0
  6  8  1  0  0  0
  7 10  1  0  0  0
 29 30  2  0  0  0
 29 31  1  0  0  0
  9 10  2  0  0  0
 18 19  1  0  0  0
 19 20  1  0  0  0
 19 21  2  0  0  0
 20 22  2  0  0  0
 30 32  1  0  0  0
 31 33  2  0  0  0
 21 24  1  0  0  0
 22 23  1  0  0  0
 32 34  2  0  0  0
 33 34  1  0  0  0
 23 24  2  0  0  0
 12 25  1  0  0  0
 38 40  1  0  0  0
 14 26  1  0  0  0
 15 27  1  0  0  0
 28 35  1  0  0  0
M  END
> <PUBCHEM_COMPOUND_CID>
31553

> <PUBCHEM_CONFORMER_RMSD>
0.8

> <PUBCHEM_CONFORMER_DIVERSEORDER>
1
106
130
72
44
97
119
114
105
62
139
32
117
75
43
79
127
29
2
18
101
98
137
63
140
126
56
93
4
38
67
30
125
115
19
142
77
92
96
50
133
129
121
124
107
95
141
22
3
70
103
99
11
49
108
90
64
76
20
131
109
59
65
122
14
71
9
7
69
102
55
51
37
82
134
57
81
74
113
47
80
87
13
58
60
110
123
40
39
23
111
138
21
83
135
128
36
16
48
112
54
68
25
118
10
31
84
94
120
46
91
66
132
27
17
100
35
12
45
53
26
28
8
143
41
33
86
78
136
5
88
85
24
15
34
61
6
89
73
52
42
116
104

> <PUBCHEM_MMFF94_PARTIAL_CHARGES>
48
1 -0.36
10 -0.53
11 0.42
12 0.28
13 0.42
14 -0.14
15 0.34
16 0.08
17 0.08
18 -0.14
19 -0.15
2 -0.36
20 0.28
21 -0.15
22 0.42
23 -0.15
24 0.09
25 0.08
26 -0.15
27 -0.15
28 0.08
29 -0.15
3 -0.36
30 0.08
31 -0.15
32 0.08
33 -0.15
34 0.08
35 0.28
4 -0.68
40 0.15
43 0.15
44 0.15
45 0.15
46 0.15
47 0.15
48 0.4
49 0.15
5 -0.68
50 0.15
51 0.4
52 0.45
53 0.45
54 0.45
6 -0.57
7 -0.53
8 -0.36
9 -0.53

> <PUBCHEM_EFFECTIVE_ROTOR_COUNT>
5.4

> <PUBCHEM_PHARMACOPHORE_FEATURES>
17
1 1 acceptor
1 10 donor
1 2 acceptor
1 3 acceptor
1 4 acceptor
1 4 donor
1 5 acceptor
1 5 donor
1 6 acceptor
1 7 donor
1 8 acceptor
1 9 donor
6 1 2 11 12 16 17 rings
6 14 16 17 19 21 23 rings
6 18 26 27 30 31 34 rings
6 24 25 28 29 32 33 rings
6 3 13 15 22 24 25 rings

> <PUBCHEM_HEAVY_ATOM_COUNT>
35

> <PUBCHEM_ATOM_DEF_STEREO_COUNT>
4

> <PUBCHEM_ATOM_UDEF_STEREO_COUNT>
0

> <PUBCHEM_BOND_DEF_STEREO_COUNT>
0

> <PUBCHEM_BOND_UDEF_STEREO_COUNT>
0

> <PUBCHEM_ISOTOPIC_ATOM_COUNT>
0

> <PUBCHEM_COMPONENT_COUNT>
1

> <PUBCHEM_CACTVS_TAUTO_COUNT>
117

> <PUBCHEM_CONFORMER_ID>
00007B4100000001

> <PUBCHEM_MMFF94_ENERGY>
117.2273

> <PUBCHEM_FEATURE_SELFOVERLAP>
86.363

> <PUBCHEM_SHAPE_FINGERPRINT>
10 15 17167864179535985733
10319926 262 16081088130831053623
10554248 39 18271517607183797190
11273773 42 18131630114737235673
11331351 85 17341806721930767490
11410812 94 15984835809442061408
11475781 23 14548730660599342899
1200032 147 18261399966410956138
12236239 1 17703214110984409639
12390115 104 18339364174793061387
12422481 6 17168409546220066172
12975358 362 18113626655568356525
13383665 225 17897179102699992046
13627167 48 17988086595145633201
13726171 33 17753345450484528780
13878862 14 18264752316780893310
14118638 360 18341604979791363983
14150022 121 18192438687285454051
14294032 229 18115598195579777822
14747281 78 17986697925002656662
14840074 17 18343019974247294581
15064981 194 17844523512963511917
15081414 286 18334011688133569924
15131766 46 18342727500128403157
15183329 4 16630811006045310861
15297060 5 18262806293528619900
15513586 35 17100879916695261580
15519825 34 14129346247030757713
15530120 55 16055743446839517748
15685185 35 18270963578072979433
1577012 14 17846498115419095617
18393751 57 17967530160776745995
19304671 126 17846225496834241400
19309040 13 18271245023348519718
19377110 9 13118005491635712846
19958102 18 13470692533626197813
20691028 202 18410857659320566881
21033648 144 18409718561380163463
21033648 29 17604143723896396471
21033650 10 15984834717898057707
22122407 14 18198067972070789209
22311459 1 18194961847111797898
23081809 10 17917703587702806283
23522609 53 17846508002265220697
23559900 14 18412536597262079170
23569914 152 16555962723111461636
249057 25 17845636067890254575
25269216 80 16988277694639972823
2748736 6 18411409644169779584
312425 54 14201381764514686744
3178227 256 18188490151983139978
34797466 226 14404602360167732363
3504750 166 12035711108086252483
3610482 184 17775000211222055983
38570 142 18131361799355456747
397830 11 16370727041001203449
3986486 107 17917446349664962484
4258327 124 18335132129653749535
42767 28 15339126761926265012
437795 70 16917355856557446808
50009960 94 11813968166171908276
5104073 3 18334569161666611994
513532 50 16199858554027367706
5364581 5 16877949386152046525
57527293 21 17458338662977929842
57724786 102 18410855443238800522
59682541 52 17060069133738810252
6608658 132 17632859699001973345
6697151 62 17320108971699185699
6712543 237 14779256502231170161
9962374 69 18265598919212919946

> <PUBCHEM_SHAPE_MULTIPOLES>
661.59
21.8
3.61
2.26
6.27
2.07
-0.73
-21.11
0.45
-6.6
0.51
2.19
-1.41
-2.1

> <PUBCHEM_SHAPE_SELFOVERLAP>
1473.277

> <PUBCHEM_SHAPE_VOLUME>
349.4

> <PUBCHEM_COORDINATE_TYPE>
2
5
10

> <minimizedAffinity>
-2.47367

> <CNNscore>
0.4642736018

> <CNNaffinity>
5.5129919052

> <CNN_VS>
2.5595366955

> <CNNaffinity_variance>
0.4627569318

$$$$
