31553


 40 44  0  0  0  0  0  0  0  0999 V2000
  -20.4096   -2.9389   14.1952 O   0  0  0  0  0  0  0  0  0  0  0  0
  -18.7567   -1.3496   12.4555 O   0  0  0  0  0  0  0  0  0  0  0  0
  -19.3912   -2.0531   14.6932 C   0  0  0  0  0  0  0  0  0  0  0  0
  -19.2131   -0.8670   13.7313 C   0  0  0  0  0  0  0  0  0  0  0  0
  -20.9076   -4.5876   10.9882 C   0  0  0  0  0  0  0  0  0  0  0  0
  -20.2814   -3.1926   12.8569 C   0  0  0  0  0  0  0  0  0  0  0  0
  -19.4728   -2.4290   12.0160 C   0  0  0  0  0  0  0  0  0  0  0  0
  -21.0116   -4.2636   12.3410 C   0  0  0  0  0  0  0  0  0  0  0  0
  -20.0769   -3.8409   10.1526 C   0  0  0  0  0  0  0  0  0  0  0  0
  -19.3574   -2.7618   10.6660 C   0  0  0  0  0  0  0  0  0  0  0  0
  -23.0860   -5.4116   10.5068 O   0  0  0  0  0  0  0  0  0  0  0  0
  -19.9247   -6.4703    8.9419 O   0  0  0  0  0  0  0  0  0  0  0  0
  -21.7127   -8.0738    7.7017 O   0  0  0  0  0  0  0  0  0  0  0  0
  -24.0895   -9.1059    7.5136 O   0  0  0  0  0  0  0  0  0  0  0  0
  -27.4579   -7.2239   10.2762 O   0  0  0  0  0  0  0  0  0  0  0  0
  -21.6941   -5.7569   10.4261 C   0  0  0  0  0  0  0  0  0  0  0  0
  -21.2850   -6.0762    8.9872 C   0  0  0  0  0  0  0  0  0  0  0  0
  -22.1272   -7.2293    8.4868 C   0  0  0  0  0  0  0  0  0  0  0  0
  -23.5189   -7.2623    8.9777 C   0  0  0  0  0  0  0  0  0  0  0  0
  -23.9214   -6.3411    9.9472 C   0  0  0  0  0  0  0  0  0  0  0  0
  -24.4308   -8.1852    8.4580 C   0  0  0  0  0  0  0  0  0  0  0  0
  -25.2506   -6.3209   10.3727 C   0  0  0  0  0  0  0  0  0  0  0  0
  -26.1641   -7.2385    9.8529 C   0  0  0  0  0  0  0  0  0  0  0  0
  -25.7536   -8.1717    8.9010 C   0  0  0  0  0  0  0  0  0  0  0  0
  -19.3667   -5.7432    9.2594 H   0  0  0  0  0  0  0  0  0  0  0  0
  -23.2100   -9.1439    7.1926 H   0  0  0  0  0  0  0  0  0  0  0  0
  -27.7346   -6.5973   10.9156 H   0  0  0  0  0  0  0  0  0  0  0  0
  -20.9473   -0.5274   19.9217 O   0  0  0  0  0  0  0  0  0  0  0  0
  -19.8071   -1.6487   16.0907 C   0  0  0  0  0  0  0  0  0  0  0  0
  -20.0590   -2.6263   17.0530 C   0  0  0  0  0  0  0  0  0  0  0  0
  -19.9385   -0.2988   16.4157 C   0  0  0  0  0  0  0  0  0  0  0  0
  -20.4429   -2.2536   18.3412 C   0  0  0  0  0  0  0  0  0  0  0  0
  -20.3224    0.0738   17.7038 C   0  0  0  0  0  0  0  0  0  0  0  0
  -20.5745   -0.9035   18.6666 C   0  0  0  0  0  0  0  0  0  0  0  0
  -21.1184   -1.1778   20.5742 H   0  0  0  0  0  0  0  0  0  0  0  0
  -20.6855   -3.2170   19.2730 O   0  0  0  0  0  0  0  0  0  0  0  0
  -22.0447   -3.4248   19.6520 C   0  0  0  0  0  0  0  0  0  0  0  0
  -17.4684    0.6302   13.0818 O   0  0  0  0  0  0  0  0  0  0  0  0
  -18.1670    0.1362   14.2095 C   0  0  0  0  0  0  0  0  0  0  0  0
  -16.7991    1.2701   13.3708 H   0  0  0  0  0  0  0  0  0  0  0  0
  1  3  1  0  0  0
  1  6  1  0  0  0
  2  4  1  0  0  0
  2  7  1  0  0  0
 11 16  1  0  0  0
 11 20  1  0  0  0
 17 12  1  0  0  0
 38 39  1  0  0  0
 13 18  2  0  0  0
 14 21  1  0  0  0
 36 32  1  0  0  0
 36 37  1  0  0  0
 15 23  1  0  0  0
 28 34  1  0  0  0
  3  4  1  0  0  0
  3 29  1  0  0  0
  4 39  1  0  0  0
 16  5  1  0  0  0
 16 17  1  0  0  0
  5  8  2  0  0  0
  5  9  1  0  0  0
 17 18  1  0  0  0
  6  7  2  0  0  0
  6  8  1  0  0  0
  7 10  1  0  0  0
 29 30  2  0  0  0
 29 31  1  0  0  0
  9 10  2  0  0  0
 18 19  1  0  0  0
 19 20  1  0  0  0
 19 21  2  0  0  0
 20 22  2  0  0  0
 30 32  1  0  0  0
 31 33  2  0  0  0
 21 24  1  0  0  0
 22 23  1  0  0  0
 32 34  2  0  0  0
 33 34  1  0  0  0
 23 24  2  0  0  0
 12 25  1  0  0  0
 38 40  1  0  0  0
 14 26  1  0  0  0
 15 27  1  0  0  0
 28 35  1  0  0  0
M  END
> <PUBCHEM_COMPOUND_CID>
31553

> <PUBCHEM_CONFORMER_RMSD>
0.8

> <PUBCHEM_CONFORMER_DIVERSEORDER>
1
106
130
72
44
97
119
114
105
62
139
32
117
75
43
79
127
29
2
18
101
98
137
63
140
126
56
93
4
38
67
30
125
115
19
142
77
92
96
50
133
129
121
124
107
95
141
22
3
70
103
99
11
49
108
90
64
76
20
131
109
59
65
122
14
71
9
7
69
102
55
51
37
82
134
57
81
74
113
47
80
87
13
58
60
110
123
40
39
23
111
138
21
83
135
128
36
16
48
112
54
68
25
118
10
31
84
94
120
46
91
66
132
27
17
100
35
12
45
53
26
28
8
143
41
33
86
78
136
5
88
85
24
15
34
61
6
89
73
52
42
116
104

> <PUBCHEM_MMFF94_PARTIAL_CHARGES>
48
1 -0.36
10 -0.53
11 0.42
12 0.28
13 0.42
14 -0.14
15 0.34
16 0.08
17 0.08
18 -0.14
19 -0.15
2 -0.36
20 0.28
21 -0.15
22 0.42
23 -0.15
24 0.09
25 0.08
26 -0.15
27 -0.15
28 0.08
29 -0.15
3 -0.36
30 0.08
31 -0.15
32 0.08
33 -0.15
34 0.08
35 0.28
4 -0.68
40 0.15
43 0.15
44 0.15
45 0.15
46 0.15
47 0.15
48 0.4
49 0.15
5 -0.68
50 0.15
51 0.4
52 0.45
53 0.45
54 0.45
6 -0.57
7 -0.53
8 -0.36
9 -0.53

> <PUBCHEM_EFFECTIVE_ROTOR_COUNT>
5.4

> <PUBCHEM_PHARMACOPHORE_FEATURES>
17
1 1 acceptor
1 10 donor
1 2 acceptor
1 3 acceptor
1 4 acceptor
1 4 donor
1 5 acceptor
1 5 donor
1 6 acceptor
1 7 donor
1 8 acceptor
1 9 donor
6 1 2 11 12 16 17 rings
6 14 16 17 19 21 23 rings
6 18 26 27 30 31 34 rings
6 24 25 28 29 32 33 rings
6 3 13 15 22 24 25 rings

> <PUBCHEM_HEAVY_ATOM_COUNT>
35

> <PUBCHEM_ATOM_DEF_STEREO_COUNT>
4

> <PUBCHEM_ATOM_UDEF_STEREO_COUNT>
0

> <PUBCHEM_BOND_DEF_STEREO_COUNT>
0

> <PUBCHEM_BOND_UDEF_STEREO_COUNT>
0

> <PUBCHEM_ISOTOPIC_ATOM_COUNT>
0

> <PUBCHEM_COMPONENT_COUNT>
1

> <PUBCHEM_CACTVS_TAUTO_COUNT>
117

> <PUBCHEM_CONFORMER_ID>
00007B4100000001

> <PUBCHEM_MMFF94_ENERGY>
117.2273

> <PUBCHEM_FEATURE_SELFOVERLAP>
86.363

> <PUBCHEM_SHAPE_FINGERPRINT>
10 15 17167864179535985733
10319926 262 16081088130831053623
10554248 39 18271517607183797190
11273773 42 18131630114737235673
11331351 85 17341806721930767490
11410812 94 15984835809442061408
11475781 23 14548730660599342899
1200032 147 18261399966410956138
12236239 1 17703214110984409639
12390115 104 18339364174793061387
12422481 6 17168409546220066172
12975358 362 18113626655568356525
13383665 225 17897179102699992046
13627167 48 17988086595145633201
13726171 33 17753345450484528780
13878862 14 18264752316780893310
14118638 360 18341604979791363983
14150022 121 18192438687285454051
14294032 229 18115598195579777822
14747281 78 17986697925002656662
14840074 17 18343019974247294581
15064981 194 17844523512963511917
15081414 286 18334011688133569924
15131766 46 18342727500128403157
15183329 4 16630811006045310861
15297060 5 18262806293528619900
15513586 35 17100879916695261580
15519825 34 14129346247030757713
15530120 55 16055743446839517748
15685185 35 18270963578072979433
1577012 14 17846498115419095617
18393751 57 17967530160776745995
19304671 126 17846225496834241400
19309040 13 18271245023348519718
19377110 9 13118005491635712846
19958102 18 13470692533626197813
20691028 202 18410857659320566881
21033648 144 18409718561380163463
21033648 29 17604143723896396471
21033650 10 15984834717898057707
22122407 14 18198067972070789209
22311459 1 18194961847111797898
23081809 10 17917703587702806283
23522609 53 17846508002265220697
23559900 14 18412536597262079170
23569914 152 16555962723111461636
249057 25 17845636067890254575
25269216 80 16988277694639972823
2748736 6 18411409644169779584
312425 54 14201381764514686744
3178227 256 18188490151983139978
34797466 226 14404602360167732363
3504750 166 12035711108086252483
3610482 184 17775000211222055983
38570 142 18131361799355456747
397830 11 16370727041001203449
3986486 107 17917446349664962484
4258327 124 18335132129653749535
42767 28 15339126761926265012
437795 70 16917355856557446808
50009960 94 11813968166171908276
5104073 3 18334569161666611994
513532 50 16199858554027367706
5364581 5 16877949386152046525
57527293 21 17458338662977929842
57724786 102 18410855443238800522
59682541 52 17060069133738810252
6608658 132 17632859699001973345
6697151 62 17320108971699185699
6712543 237 14779256502231170161
9962374 69 18265598919212919946

> <PUBCHEM_SHAPE_MULTIPOLES>
661.59
21.8
3.61
2.26
6.27
2.07
-0.73
-21.11
0.45
-6.6
0.51
2.19
-1.41
-2.1

> <PUBCHEM_SHAPE_SELFOVERLAP>
1473.277

> <PUBCHEM_SHAPE_VOLUME>
349.4

> <PUBCHEM_COORDINATE_TYPE>
2
5
10

> <minimizedAffinity>
-2.47367

> <CNNscore>
0.4642736018

> <CNNaffinity>
5.5129919052

> <CNN_VS>
2.5595366955

> <CNNaffinity_variance>
0.4627569318

$$$$
31553


 40 44  0  0  0  0  0  0  0  0999 V2000
  -20.6617   -0.3420   14.9039 O   0  0  0  0  0  0  0  0  0  0  0  0
  -17.8649    0.2742   14.6159 O   0  0  0  0  0  0  0  0  0  0  0  0
  -19.6498   -0.9353   15.7368 C   0  0  0  0  0  0  0  0  0  0  0  0
  -18.4695    0.0365   15.8993 C   0  0  0  0  0  0  0  0  0  0  0  0
  -20.5726    1.1735   11.5953 C   0  0  0  0  0  0  0  0  0  0  0  0
  -20.1441    0.2546   13.7868 C   0  0  0  0  0  0  0  0  0  0  0  0
  -18.7878    0.5439   13.6430 C   0  0  0  0  0  0  0  0  0  0  0  0
  -21.0404    0.5828   12.7693 C   0  0  0  0  0  0  0  0  0  0  0  0
  -19.2117    1.4373   11.4400 C   0  0  0  0  0  0  0  0  0  0  0  0
  -18.3176    1.1213   12.4630 C   0  0  0  0  0  0  0  0  0  0  0  0
  -22.8688    1.4257   11.0298 O   0  0  0  0  0  0  0  0  0  0  0  0
  -19.9899    2.9755    9.3346 O   0  0  0  0  0  0  0  0  0  0  0  0
  -22.0552    3.8856    7.8472 O   0  0  0  0  0  0  0  0  0  0  0  0
  -24.5554    3.8086    7.1451 O   0  0  0  0  0  0  0  0  0  0  0  0
  -27.4483    1.1823    9.8383 O   0  0  0  0  0  0  0  0  0  0  0  0
  -21.5439    1.5240   10.4838 C   0  0  0  0  0  0  0  0  0  0  0  0
  -21.2795    2.9208    9.9191 C   0  0  0  0  0  0  0  0  0  0  0  0
  -22.2996    3.2098    8.8397 C   0  0  0  0  0  0  0  0  0  0  0  0
  -23.6467    2.6522    9.0698 C   0  0  0  0  0  0  0  0  0  0  0  0
  -23.8564    1.8056   10.1607 C   0  0  0  0  0  0  0  0  0  0  0  0
  -24.7064    2.9898    8.2234 C   0  0  0  0  0  0  0  0  0  0  0  0
  -25.1392    1.3232   10.4254 C   0  0  0  0  0  0  0  0  0  0  0  0
  -26.1996    1.6616    9.5844 C   0  0  0  0  0  0  0  0  0  0  0  0
  -25.9825    2.4894    8.4829 C   0  0  0  0  0  0  0  0  0  0  0  0
  -19.3199    2.7926   10.0117 H   0  0  0  0  0  0  0  0  0  0  0  0
  -23.7126    4.1633    6.9404 H   0  0  0  0  0  0  0  0  0  0  0  0
  -27.5952    0.6262   10.5779 H   0  0  0  0  0  0  0  0  0  0  0  0
  -22.1556   -2.3146   20.6261 O   0  0  0  0  0  0  0  0  0  0  0  0
  -20.3188   -1.3069   17.0421 C   0  0  0  0  0  0  0  0  0  0  0  0
  -20.4886   -2.6492   17.3806 C   0  0  0  0  0  0  0  0  0  0  0  0
  -20.7654   -0.3072   17.9059 C   0  0  0  0  0  0  0  0  0  0  0  0
  -21.1058   -2.9919   18.5837 C   0  0  0  0  0  0  0  0  0  0  0  0
  -21.3827   -0.6498   19.1088 C   0  0  0  0  0  0  0  0  0  0  0  0
  -21.5527   -1.9921   19.4479 C   0  0  0  0  0  0  0  0  0  0  0  0
  -22.2736   -3.2139   20.8612 H   0  0  0  0  0  0  0  0  0  0  0  0
  -21.2655   -4.3061   18.9041 O   0  0  0  0  0  0  0  0  0  0  0  0
  -22.1816   -4.6107   19.9541 C   0  0  0  0  0  0  0  0  0  0  0  0
  -17.7569   -1.7906   17.2636 O   0  0  0  0  0  0  0  0  0  0  0  0
  -17.3652   -0.5122   16.7986 C   0  0  0  0  0  0  0  0  0  0  0  0
  -17.0636   -2.1524   17.8374 H   0  0  0  0  0  0  0  0  0  0  0  0
  1  3  1  0  0  0
  1  6  1  0  0  0
  2  4  1  0  0  0
  2  7  1  0  0  0
 11 16  1  0  0  0
 11 20  1  0  0  0
 17 12  1  0  0  0
 38 39  1  0  0  0
 13 18  2  0  0  0
 14 21  1  0  0  0
 36 32  1  0  0  0
 36 37  1  0  0  0
 15 23  1  0  0  0
 28 34  1  0  0  0
  3  4  1  0  0  0
  3 29  1  0  0  0
  4 39  1  0  0  0
 16  5  1  0  0  0
 16 17  1  0  0  0
  5  8  2  0  0  0
  5  9  1  0  0  0
 17 18  1  0  0  0
  6  7  2  0  0  0
  6  8  1  0  0  0
  7 10  1  0  0  0
 29 30  2  0  0  0
 29 31  1  0  0  0
  9 10  2  0  0  0
 18 19  1  0  0  0
 19 20  1  0  0  0
 19 21  2  0  0  0
 20 22  2  0  0  0
 30 32  1  0  0  0
 31 33  2  0  0  0
 21 24  1  0  0  0
 22 23  1  0  0  0
 32 34  2  0  0  0
 33 34  1  0  0  0
 23 24  2  0  0  0
 12 25  1  0  0  0
 38 40  1  0  0  0
 14 26  1  0  0  0
 15 27  1  0  0  0
 28 35  1  0  0  0
M  END
> <PUBCHEM_COMPOUND_CID>
31553

> <PUBCHEM_CONFORMER_RMSD>
0.8

> <PUBCHEM_CONFORMER_DIVERSEORDER>
1
106
130
72
44
97
119
114
105
62
139
32
117
75
43
79
127
29
2
18
101
98
137
63
140
126
56
93
4
38
67
30
125
115
19
142
77
92
96
50
133
129
121
124
107
95
141
22
3
70
103
99
11
49
108
90
64
76
20
131
109
59
65
122
14
71
9
7
69
102
55
51
37
82
134
57
81
74
113
47
80
87
13
58
60
110
123
40
39
23
111
138
21
83
135
128
36
16
48
112
54
68
25
118
10
31
84
94
120
46
91
66
132
27
17
100
35
12
45
53
26
28
8
143
41
33
86
78
136
5
88
85
24
15
34
61
6
89
73
52
42
116
104

> <PUBCHEM_MMFF94_PARTIAL_CHARGES>
48
1 -0.36
10 -0.53
11 0.42
12 0.28
13 0.42
14 -0.14
15 0.34
16 0.08
17 0.08
18 -0.14
19 -0.15
2 -0.36
20 0.28
21 -0.15
22 0.42
23 -0.15
24 0.09
25 0.08
26 -0.15
27 -0.15
28 0.08
29 -0.15
3 -0.36
30 0.08
31 -0.15
32 0.08
33 -0.15
34 0.08
35 0.28
4 -0.68
40 0.15
43 0.15
44 0.15
45 0.15
46 0.15
47 0.15
48 0.4
49 0.15
5 -0.68
50 0.15
51 0.4
52 0.45
53 0.45
54 0.45
6 -0.57
7 -0.53
8 -0.36
9 -0.53

> <PUBCHEM_EFFECTIVE_ROTOR_COUNT>
5.4

> <PUBCHEM_PHARMACOPHORE_FEATURES>
17
1 1 acceptor
1 10 donor
1 2 acceptor
1 3 acceptor
1 4 acceptor
1 4 donor
1 5 acceptor
1 5 donor
1 6 acceptor
1 7 donor
1 8 acceptor
1 9 donor
6 1 2 11 12 16 17 rings
6 14 16 17 19 21 23 rings
6 18 26 27 30 31 34 rings
6 24 25 28 29 32 33 rings
6 3 13 15 22 24 25 rings

> <PUBCHEM_HEAVY_ATOM_COUNT>
35

> <PUBCHEM_ATOM_DEF_STEREO_COUNT>
4

> <PUBCHEM_ATOM_UDEF_STEREO_COUNT>
0

> <PUBCHEM_BOND_DEF_STEREO_COUNT>
0

> <PUBCHEM_BOND_UDEF_STEREO_COUNT>
0

> <PUBCHEM_ISOTOPIC_ATOM_COUNT>
0

> <PUBCHEM_COMPONENT_COUNT>
1

> <PUBCHEM_CACTVS_TAUTO_COUNT>
117

> <PUBCHEM_CONFORMER_ID>
00007B4100000001

> <PUBCHEM_MMFF94_ENERGY>
117.2273

> <PUBCHEM_FEATURE_SELFOVERLAP>
86.363

> <PUBCHEM_SHAPE_FINGERPRINT>
10 15 17167864179535985733
10319926 262 16081088130831053623
10554248 39 18271517607183797190
11273773 42 18131630114737235673
11331351 85 17341806721930767490
11410812 94 15984835809442061408
11475781 23 14548730660599342899
1200032 147 18261399966410956138
12236239 1 17703214110984409639
12390115 104 18339364174793061387
12422481 6 17168409546220066172
12975358 362 18113626655568356525
13383665 225 17897179102699992046
13627167 48 17988086595145633201
13726171 33 17753345450484528780
13878862 14 18264752316780893310
14118638 360 18341604979791363983
14150022 121 18192438687285454051
14294032 229 18115598195579777822
14747281 78 17986697925002656662
14840074 17 18343019974247294581
15064981 194 17844523512963511917
15081414 286 18334011688133569924
15131766 46 18342727500128403157
15183329 4 16630811006045310861
15297060 5 18262806293528619900
15513586 35 17100879916695261580
15519825 34 14129346247030757713
15530120 55 16055743446839517748
15685185 35 18270963578072979433
1577012 14 17846498115419095617
18393751 57 17967530160776745995
19304671 126 17846225496834241400
19309040 13 18271245023348519718
19377110 9 13118005491635712846
19958102 18 13470692533626197813
20691028 202 18410857659320566881
21033648 144 18409718561380163463
21033648 29 17604143723896396471
21033650 10 15984834717898057707
22122407 14 18198067972070789209
22311459 1 18194961847111797898
23081809 10 17917703587702806283
23522609 53 17846508002265220697
23559900 14 18412536597262079170
23569914 152 16555962723111461636
249057 25 17845636067890254575
25269216 80 16988277694639972823
2748736 6 18411409644169779584
312425 54 14201381764514686744
3178227 256 18188490151983139978
34797466 226 14404602360167732363
3504750 166 12035711108086252483
3610482 184 17775000211222055983
38570 142 18131361799355456747
397830 11 16370727041001203449
3986486 107 17917446349664962484
4258327 124 18335132129653749535
42767 28 15339126761926265012
437795 70 16917355856557446808
50009960 94 11813968166171908276
5104073 3 18334569161666611994
513532 50 16199858554027367706
5364581 5 16877949386152046525
57527293 21 17458338662977929842
57724786 102 18410855443238800522
59682541 52 17060069133738810252
6608658 132 17632859699001973345
6697151 62 17320108971699185699
6712543 237 14779256502231170161
9962374 69 18265598919212919946

> <PUBCHEM_SHAPE_MULTIPOLES>
661.59
21.8
3.61
2.26
6.27
2.07
-0.73
-21.11
0.45
-6.6
0.51
2.19
-1.41
-2.1

> <PUBCHEM_SHAPE_SELFOVERLAP>
1473.277

> <PUBCHEM_SHAPE_VOLUME>
349.4

> <PUBCHEM_COORDINATE_TYPE>
2
5
10

> <minimizedAffinity>
3.55569

> <CNNscore>
0.4220515192

> <CNNaffinity>
5.1527214050

> <CNN_VS>
2.1747138500

> <CNNaffinity_variance>
1.1606752872

$$$$
31553


 40 44  0  0  0  0  0  0  0  0999 V2000
  -20.4542   -2.0090   12.6117 O   0  0  0  0  0  0  0  0  0  0  0  0
  -20.5431   -3.4759   15.0865 O   0  0  0  0  0  0  0  0  0  0  0  0
  -20.4396   -1.3602   13.8957 C   0  0  0  0  0  0  0  0  0  0  0  0
  -19.7692   -2.2728   14.9357 C   0  0  0  0  0  0  0  0  0  0  0  0
  -21.6182   -5.2734   11.4980 C   0  0  0  0  0  0  0  0  0  0  0  0
  -20.8448   -3.3181   12.6852 C   0  0  0  0  0  0  0  0  0  0  0  0
  -20.8977   -4.0258   13.8853 C   0  0  0  0  0  0  0  0  0  0  0  0
  -21.1906   -3.9456   11.4880 C   0  0  0  0  0  0  0  0  0  0  0  0
  -21.6978   -5.9728   12.7022 C   0  0  0  0  0  0  0  0  0  0  0  0
  -21.3392   -5.3493   13.8974 C   0  0  0  0  0  0  0  0  0  0  0  0
  -23.2172   -5.3420    9.7389 O   0  0  0  0  0  0  0  0  0  0  0  0
  -19.7263   -6.5076    9.6019 O   0  0  0  0  0  0  0  0  0  0  0  0
  -20.6031   -7.1139    7.1180 O   0  0  0  0  0  0  0  0  0  0  0  0
  -22.5298   -7.4261    5.4032 O   0  0  0  0  0  0  0  0  0  0  0  0
  -26.8211   -5.8779    6.7098 O   0  0  0  0  0  0  0  0  0  0  0  0
  -22.0027   -5.9557   10.1987 C   0  0  0  0  0  0  0  0  0  0  0  0
  -20.8943   -5.8448    9.1502 C   0  0  0  0  0  0  0  0  0  0  0  0
  -21.3587   -6.5206    7.8786 C   0  0  0  0  0  0  0  0  0  0  0  0
  -22.7980   -6.3922    7.5774 C   0  0  0  0  0  0  0  0  0  0  0  0
  -23.6404   -5.7959    8.5182 C   0  0  0  0  0  0  0  0  0  0  0  0
  -23.3070   -6.8359    6.3537 C   0  0  0  0  0  0  0  0  0  0  0  0
  -24.9911   -5.6114    8.2187 C   0  0  0  0  0  0  0  0  0  0  0  0
  -25.5014   -6.0498    6.9965 C   0  0  0  0  0  0  0  0  0  0  0  0
  -24.6618   -6.6651    6.0680 C   0  0  0  0  0  0  0  0  0  0  0  0
  -19.4118   -6.0884   10.4182 H   0  0  0  0  0  0  0  0  0  0  0  0
  -21.6154   -7.5570    5.5607 H   0  0  0  0  0  0  0  0  0  0  0  0
  -27.3859   -5.4647    7.3329 H   0  0  0  0  0  0  0  0  0  0  0  0
  -17.8194    3.6106   13.1802 O   0  0  0  0  0  0  0  0  0  0  0  0
  -19.7399   -0.0318   13.7077 C   0  0  0  0  0  0  0  0  0  0  0  0
  -19.4873    0.7847   14.8099 C   0  0  0  0  0  0  0  0  0  0  0  0
  -19.3482    0.3755   12.4327 C   0  0  0  0  0  0  0  0  0  0  0  0
  -18.8428    2.0096   14.6367 C   0  0  0  0  0  0  0  0  0  0  0  0
  -18.7038    1.6003   12.2596 C   0  0  0  0  0  0  0  0  0  0  0  0
  -18.4509    2.4173   13.3614 C   0  0  0  0  0  0  0  0  0  0  0  0
  -17.6459    4.1652   13.9152 H   0  0  0  0  0  0  0  0  0  0  0  0
  -18.6007    2.7983   15.7205 O   0  0  0  0  0  0  0  0  0  0  0  0
  -19.7143    3.1154   16.5533 C   0  0  0  0  0  0  0  0  0  0  0  0
  -20.4972   -0.4764   16.3323 O   0  0  0  0  0  0  0  0  0  0  0  0
  -19.6885   -1.6383   16.3214 C   0  0  0  0  0  0  0  0  0  0  0  0
  -20.4556   -0.0617   17.2082 H   0  0  0  0  0  0  0  0  0  0  0  0
  1  3  1  0  0  0
  1  6  1  0  0  0
  2  4  1  0  0  0
  2  7  1  0  0  0
 11 16  1  0  0  0
 11 20  1  0  0  0
 17 12  1  0  0  0
 38 39  1  0  0  0
 13 18  2  0  0  0
 14 21  1  0  0  0
 36 32  1  0  0  0
 36 37  1  0  0  0
 15 23  1  0  0  0
 28 34  1  0  0  0
  3  4  1  0  0  0
  3 29  1  0  0  0
  4 39  1  0  0  0
 16  5  1  0  0  0
 16 17  1  0  0  0
  5  8  2  0  0  0
  5  9  1  0  0  0
 17 18  1  0  0  0
  6  7  2  0  0  0
  6  8  1  0  0  0
  7 10  1  0  0  0
 29 30  2  0  0  0
 29 31  1  0  0  0
  9 10  2  0  0  0
 18 19  1  0  0  0
 19 20  1  0  0  0
 19 21  2  0  0  0
 20 22  2  0  0  0
 30 32  1  0  0  0
 31 33  2  0  0  0
 21 24  1  0  0  0
 22 23  1  0  0  0
 32 34  2  0  0  0
 33 34  1  0  0  0
 23 24  2  0  0  0
 12 25  1  0  0  0
 38 40  1  0  0  0
 14 26  1  0  0  0
 15 27  1  0  0  0
 28 35  1  0  0  0
M  END
> <PUBCHEM_COMPOUND_CID>
31553

> <PUBCHEM_CONFORMER_RMSD>
0.8

> <PUBCHEM_CONFORMER_DIVERSEORDER>
1
106
130
72
44
97
119
114
105
62
139
32
117
75
43
79
127
29
2
18
101
98
137
63
140
126
56
93
4
38
67
30
125
115
19
142
77
92
96
50
133
129
121
124
107
95
141
22
3
70
103
99
11
49
108
90
64
76
20
131
109
59
65
122
14
71
9
7
69
102
55
51
37
82
134
57
81
74
113
47
80
87
13
58
60
110
123
40
39
23
111
138
21
83
135
128
36
16
48
112
54
68
25
118
10
31
84
94
120
46
91
66
132
27
17
100
35
12
45
53
26
28
8
143
41
33
86
78
136
5
88
85
24
15
34
61
6
89
73
52
42
116
104

> <PUBCHEM_MMFF94_PARTIAL_CHARGES>
48
1 -0.36
10 -0.53
11 0.42
12 0.28
13 0.42
14 -0.14
15 0.34
16 0.08
17 0.08
18 -0.14
19 -0.15
2 -0.36
20 0.28
21 -0.15
22 0.42
23 -0.15
24 0.09
25 0.08
26 -0.15
27 -0.15
28 0.08
29 -0.15
3 -0.36
30 0.08
31 -0.15
32 0.08
33 -0.15
34 0.08
35 0.28
4 -0.68
40 0.15
43 0.15
44 0.15
45 0.15
46 0.15
47 0.15
48 0.4
49 0.15
5 -0.68
50 0.15
51 0.4
52 0.45
53 0.45
54 0.45
6 -0.57
7 -0.53
8 -0.36
9 -0.53

> <PUBCHEM_EFFECTIVE_ROTOR_COUNT>
5.4

> <PUBCHEM_PHARMACOPHORE_FEATURES>
17
1 1 acceptor
1 10 donor
1 2 acceptor
1 3 acceptor
1 4 acceptor
1 4 donor
1 5 acceptor
1 5 donor
1 6 acceptor
1 7 donor
1 8 acceptor
1 9 donor
6 1 2 11 12 16 17 rings
6 14 16 17 19 21 23 rings
6 18 26 27 30 31 34 rings
6 24 25 28 29 32 33 rings
6 3 13 15 22 24 25 rings

> <PUBCHEM_HEAVY_ATOM_COUNT>
35

> <PUBCHEM_ATOM_DEF_STEREO_COUNT>
4

> <PUBCHEM_ATOM_UDEF_STEREO_COUNT>
0

> <PUBCHEM_BOND_DEF_STEREO_COUNT>
0

> <PUBCHEM_BOND_UDEF_STEREO_COUNT>
0

> <PUBCHEM_ISOTOPIC_ATOM_COUNT>
0

> <PUBCHEM_COMPONENT_COUNT>
1

> <PUBCHEM_CACTVS_TAUTO_COUNT>
117

> <PUBCHEM_CONFORMER_ID>
00007B4100000001

> <PUBCHEM_MMFF94_ENERGY>
117.2273

> <PUBCHEM_FEATURE_SELFOVERLAP>
86.363

> <PUBCHEM_SHAPE_FINGERPRINT>
10 15 17167864179535985733
10319926 262 16081088130831053623
10554248 39 18271517607183797190
11273773 42 18131630114737235673
11331351 85 17341806721930767490
11410812 94 15984835809442061408
11475781 23 14548730660599342899
1200032 147 18261399966410956138
12236239 1 17703214110984409639
12390115 104 18339364174793061387
12422481 6 17168409546220066172
12975358 362 18113626655568356525
13383665 225 17897179102699992046
13627167 48 17988086595145633201
13726171 33 17753345450484528780
13878862 14 18264752316780893310
14118638 360 18341604979791363983
14150022 121 18192438687285454051
14294032 229 18115598195579777822
14747281 78 17986697925002656662
14840074 17 18343019974247294581
15064981 194 17844523512963511917
15081414 286 18334011688133569924
15131766 46 18342727500128403157
15183329 4 16630811006045310861
15297060 5 18262806293528619900
15513586 35 17100879916695261580
15519825 34 14129346247030757713
15530120 55 16055743446839517748
15685185 35 18270963578072979433
1577012 14 17846498115419095617
18393751 57 17967530160776745995
19304671 126 17846225496834241400
19309040 13 18271245023348519718
19377110 9 13118005491635712846
19958102 18 13470692533626197813
20691028 202 18410857659320566881
21033648 144 18409718561380163463
21033648 29 17604143723896396471
21033650 10 15984834717898057707
22122407 14 18198067972070789209
22311459 1 18194961847111797898
23081809 10 17917703587702806283
23522609 53 17846508002265220697
23559900 14 18412536597262079170
23569914 152 16555962723111461636
249057 25 17845636067890254575
25269216 80 16988277694639972823
2748736 6 18411409644169779584
312425 54 14201381764514686744
3178227 256 18188490151983139978
34797466 226 14404602360167732363
3504750 166 12035711108086252483
3610482 184 17775000211222055983
38570 142 18131361799355456747
397830 11 16370727041001203449
3986486 107 17917446349664962484
4258327 124 18335132129653749535
42767 28 15339126761926265012
437795 70 16917355856557446808
50009960 94 11813968166171908276
5104073 3 18334569161666611994
513532 50 16199858554027367706
5364581 5 16877949386152046525
57527293 21 17458338662977929842
57724786 102 18410855443238800522
59682541 52 17060069133738810252
6608658 132 17632859699001973345
6697151 62 17320108971699185699
6712543 237 14779256502231170161
9962374 69 18265598919212919946

> <PUBCHEM_SHAPE_MULTIPOLES>
661.59
21.8
3.61
2.26
6.27
2.07
-0.73
-21.11
0.45
-6.6
0.51
2.19
-1.41
-2.1

> <PUBCHEM_SHAPE_SELFOVERLAP>
1473.277

> <PUBCHEM_SHAPE_VOLUME>
349.4

> <PUBCHEM_COORDINATE_TYPE>
2
5
10

> <minimizedAffinity>
-0.99922

> <CNNscore>
0.4063664377

> <CNNaffinity>
5.2965116501

> <CNN_VS>
2.1523246765

> <CNNaffinity_variance>
1.5781974792

$$$$
31553


 40 44  0  0  0  0  0  0  0  0999 V2000
  -22.2379   -5.2523    9.5682 O   0  0  0  0  0  0  0  0  0  0  0  0
  -23.8187   -4.9248   11.9511 O   0  0  0  0  0  0  0  0  0  0  0  0
  -23.2188   -6.2191    9.9840 C   0  0  0  0  0  0  0  0  0  0  0  0
  -24.3504   -5.5188   10.7539 C   0  0  0  0  0  0  0  0  0  0  0  0
  -20.3592   -2.7006   11.3600 C   0  0  0  0  0  0  0  0  0  0  0  0
  -21.9086   -4.3721   10.5624 C   0  0  0  0  0  0  0  0  0  0  0  0
  -22.6687   -4.2206   11.7214 C   0  0  0  0  0  0  0  0  0  0  0  0
  -20.7611   -3.6013   10.3735 C   0  0  0  0  0  0  0  0  0  0  0  0
  -21.1043   -2.5694   12.5319 C   0  0  0  0  0  0  0  0  0  0  0  0
  -22.2589   -3.3305   12.7146 C   0  0  0  0  0  0  0  0  0  0  0  0
  -19.4648   -0.7553   10.3247 O   0  0  0  0  0  0  0  0  0  0  0  0
  -18.1249   -2.5057   13.2750 O   0  0  0  0  0  0  0  0  0  0  0  0
  -16.3219   -0.5178   12.9529 O   0  0  0  0  0  0  0  0  0  0  0  0
  -15.2783    1.3939   11.5365 O   0  0  0  0  0  0  0  0  0  0  0  0
  -17.6515    2.7032    7.6412 O   0  0  0  0  0  0  0  0  0  0  0  0
  -19.1073   -1.8671   11.1609 C   0  0  0  0  0  0  0  0  0  0  0  0
  -18.5236   -1.3934   12.4931 C   0  0  0  0  0  0  0  0  0  0  0  0
  -17.2992   -0.5492   12.2145 C   0  0  0  0  0  0  0  0  0  0  0  0
  -17.3618    0.2824   10.9966 C   0  0  0  0  0  0  0  0  0  0  0  0
  -18.4490    0.1423   10.1311 C   0  0  0  0  0  0  0  0  0  0  0  0
  -16.3601    1.2191   10.7271 C   0  0  0  0  0  0  0  0  0  0  0  0
  -18.5514    0.9674    9.0099 C   0  0  0  0  0  0  0  0  0  0  0  0
  -17.5550    1.9059    8.7404 C   0  0  0  0  0  0  0  0  0  0  0  0
  -16.4593    2.0280    9.5948 C   0  0  0  0  0  0  0  0  0  0  0  0
  -18.8973   -3.0609   13.4650 H   0  0  0  0  0  0  0  0  0  0  0  0
  -15.1789    0.8682   12.3057 H   0  0  0  0  0  0  0  0  0  0  0  0
  -18.3872    2.6220    7.0666 H   0  0  0  0  0  0  0  0  0  0  0  0
  -24.9509   -8.9178    5.3145 O   0  0  0  0  0  0  0  0  0  0  0  0
  -23.6831   -6.9373    8.7357 C   0  0  0  0  0  0  0  0  0  0  0  0
  -24.4823   -6.2726    7.8059 C   0  0  0  0  0  0  0  0  0  0  0  0
  -23.3118   -8.2635    8.5157 C   0  0  0  0  0  0  0  0  0  0  0  0
  -24.9108   -6.9348    6.6554 C   0  0  0  0  0  0  0  0  0  0  0  0
  -23.7404   -8.9257    7.3653 C   0  0  0  0  0  0  0  0  0  0  0  0
  -24.5397   -8.2613    6.4351 C   0  0  0  0  0  0  0  0  0  0  0  0
  -25.4880   -8.4786    4.6848 H   0  0  0  0  0  0  0  0  0  0  0  0
  -25.6904   -6.2752    5.7540 O   0  0  0  0  0  0  0  0  0  0  0  0
  -25.4775   -4.8716    5.6172 C   0  0  0  0  0  0  0  0  0  0  0  0
  -25.5167   -6.4556   12.6166 O   0  0  0  0  0  0  0  0  0  0  0  0
  -25.4487   -6.4788   11.2028 C   0  0  0  0  0  0  0  0  0  0  0  0
  -26.2117   -7.0621   12.9169 H   0  0  0  0  0  0  0  0  0  0  0  0
  1  3  1  0  0  0
  1  6  1  0  0  0
  2  4  1  0  0  0
  2  7  1  0  0  0
 11 16  1  0  0  0
 11 20  1  0  0  0
 17 12  1  0  0  0
 38 39  1  0  0  0
 13 18  2  0  0  0
 14 21  1  0  0  0
 36 32  1  0  0  0
 36 37  1  0  0  0
 15 23  1  0  0  0
 28 34  1  0  0  0
  3  4  1  0  0  0
  3 29  1  0  0  0
  4 39  1  0  0  0
 16  5  1  0  0  0
 16 17  1  0  0  0
  5  8  2  0  0  0
  5  9  1  0  0  0
 17 18  1  0  0  0
  6  7  2  0  0  0
  6  8  1  0  0  0
  7 10  1  0  0  0
 29 30  2  0  0  0
 29 31  1  0  0  0
  9 10  2  0  0  0
 18 19  1  0  0  0
 19 20  1  0  0  0
 19 21  2  0  0  0
 20 22  2  0  0  0
 30 32  1  0  0  0
 31 33  2  0  0  0
 21 24  1  0  0  0
 22 23  1  0  0  0
 32 34  2  0  0  0
 33 34  1  0  0  0
 23 24  2  0  0  0
 12 25  1  0  0  0
 38 40  1  0  0  0
 14 26  1  0  0  0
 15 27  1  0  0  0
 28 35  1  0  0  0
M  END
> <PUBCHEM_COMPOUND_CID>
31553

> <PUBCHEM_CONFORMER_RMSD>
0.8

> <PUBCHEM_CONFORMER_DIVERSEORDER>
1
106
130
72
44
97
119
114
105
62
139
32
117
75
43
79
127
29
2
18
101
98
137
63
140
126
56
93
4
38
67
30
125
115
19
142
77
92
96
50
133
129
121
124
107
95
141
22
3
70
103
99
11
49
108
90
64
76
20
131
109
59
65
122
14
71
9
7
69
102
55
51
37
82
134
57
81
74
113
47
80
87
13
58
60
110
123
40
39
23
111
138
21
83
135
128
36
16
48
112
54
68
25
118
10
31
84
94
120
46
91
66
132
27
17
100
35
12
45
53
26
28
8
143
41
33
86
78
136
5
88
85
24
15
34
61
6
89
73
52
42
116
104

> <PUBCHEM_MMFF94_PARTIAL_CHARGES>
48
1 -0.36
10 -0.53
11 0.42
12 0.28
13 0.42
14 -0.14
15 0.34
16 0.08
17 0.08
18 -0.14
19 -0.15
2 -0.36
20 0.28
21 -0.15
22 0.42
23 -0.15
24 0.09
25 0.08
26 -0.15
27 -0.15
28 0.08
29 -0.15
3 -0.36
30 0.08
31 -0.15
32 0.08
33 -0.15
34 0.08
35 0.28
4 -0.68
40 0.15
43 0.15
44 0.15
45 0.15
46 0.15
47 0.15
48 0.4
49 0.15
5 -0.68
50 0.15
51 0.4
52 0.45
53 0.45
54 0.45
6 -0.57
7 -0.53
8 -0.36
9 -0.53

> <PUBCHEM_EFFECTIVE_ROTOR_COUNT>
5.4

> <PUBCHEM_PHARMACOPHORE_FEATURES>
17
1 1 acceptor
1 10 donor
1 2 acceptor
1 3 acceptor
1 4 acceptor
1 4 donor
1 5 acceptor
1 5 donor
1 6 acceptor
1 7 donor
1 8 acceptor
1 9 donor
6 1 2 11 12 16 17 rings
6 14 16 17 19 21 23 rings
6 18 26 27 30 31 34 rings
6 24 25 28 29 32 33 rings
6 3 13 15 22 24 25 rings

> <PUBCHEM_HEAVY_ATOM_COUNT>
35

> <PUBCHEM_ATOM_DEF_STEREO_COUNT>
4

> <PUBCHEM_ATOM_UDEF_STEREO_COUNT>
0

> <PUBCHEM_BOND_DEF_STEREO_COUNT>
0

> <PUBCHEM_BOND_UDEF_STEREO_COUNT>
0

> <PUBCHEM_ISOTOPIC_ATOM_COUNT>
0

> <PUBCHEM_COMPONENT_COUNT>
1

> <PUBCHEM_CACTVS_TAUTO_COUNT>
117

> <PUBCHEM_CONFORMER_ID>
00007B4100000001

> <PUBCHEM_MMFF94_ENERGY>
117.2273

> <PUBCHEM_FEATURE_SELFOVERLAP>
86.363

> <PUBCHEM_SHAPE_FINGERPRINT>
10 15 17167864179535985733
10319926 262 16081088130831053623
10554248 39 18271517607183797190
11273773 42 18131630114737235673
11331351 85 17341806721930767490
11410812 94 15984835809442061408
11475781 23 14548730660599342899
1200032 147 18261399966410956138
12236239 1 17703214110984409639
12390115 104 18339364174793061387
12422481 6 17168409546220066172
12975358 362 18113626655568356525
13383665 225 17897179102699992046
13627167 48 17988086595145633201
13726171 33 17753345450484528780
13878862 14 18264752316780893310
14118638 360 18341604979791363983
14150022 121 18192438687285454051
14294032 229 18115598195579777822
14747281 78 17986697925002656662
14840074 17 18343019974247294581
15064981 194 17844523512963511917
15081414 286 18334011688133569924
15131766 46 18342727500128403157
15183329 4 16630811006045310861
15297060 5 18262806293528619900
15513586 35 17100879916695261580
15519825 34 14129346247030757713
15530120 55 16055743446839517748
15685185 35 18270963578072979433
1577012 14 17846498115419095617
18393751 57 17967530160776745995
19304671 126 17846225496834241400
19309040 13 18271245023348519718
19377110 9 13118005491635712846
19958102 18 13470692533626197813
20691028 202 18410857659320566881
21033648 144 18409718561380163463
21033648 29 17604143723896396471
21033650 10 15984834717898057707
22122407 14 18198067972070789209
22311459 1 18194961847111797898
23081809 10 17917703587702806283
23522609 53 17846508002265220697
23559900 14 18412536597262079170
23569914 152 16555962723111461636
249057 25 17845636067890254575
25269216 80 16988277694639972823
2748736 6 18411409644169779584
312425 54 14201381764514686744
3178227 256 18188490151983139978
34797466 226 14404602360167732363
3504750 166 12035711108086252483
3610482 184 17775000211222055983
38570 142 18131361799355456747
397830 11 16370727041001203449
3986486 107 17917446349664962484
4258327 124 18335132129653749535
42767 28 15339126761926265012
437795 70 16917355856557446808
50009960 94 11813968166171908276
5104073 3 18334569161666611994
513532 50 16199858554027367706
5364581 5 16877949386152046525
57527293 21 17458338662977929842
57724786 102 18410855443238800522
59682541 52 17060069133738810252
6608658 132 17632859699001973345
6697151 62 17320108971699185699
6712543 237 14779256502231170161
9962374 69 18265598919212919946

> <PUBCHEM_SHAPE_MULTIPOLES>
661.59
21.8
3.61
2.26
6.27
2.07
-0.73
-21.11
0.45
-6.6
0.51
2.19
-1.41
-2.1

> <PUBCHEM_SHAPE_SELFOVERLAP>
1473.277

> <PUBCHEM_SHAPE_VOLUME>
349.4

> <PUBCHEM_COORDINATE_TYPE>
2
5
10

> <minimizedAffinity>
-5.03813

> <CNNscore>
0.3927865624

> <CNNaffinity>
5.1910605431

> <CNN_VS>
2.0389788151

> <CNNaffinity_variance>
0.1519032419

$$$$
31553


 40 44  0  0  0  0  0  0  0  0999 V2000
  -22.1784   -3.7422   10.2785 O   0  0  0  0  0  0  0  0  0  0  0  0
  -20.2136   -5.7974    9.8310 O   0  0  0  0  0  0  0  0  0  0  0  0
  -22.1528   -4.5395    9.0813 C   0  0  0  0  0  0  0  0  0  0  0  0
  -21.5766   -5.9308    9.3912 C   0  0  0  0  0  0  0  0  0  0  0  0
  -19.6381   -2.8892   12.7423 C   0  0  0  0  0  0  0  0  0  0  0  0
  -21.0159   -3.8265   10.9949 C   0  0  0  0  0  0  0  0  0  0  0  0
  -20.0594   -4.8160   10.7714 C   0  0  0  0  0  0  0  0  0  0  0  0
  -20.8133   -2.8709   11.9910 C   0  0  0  0  0  0  0  0  0  0  0  0
  -18.6686   -3.8623   12.4997 C   0  0  0  0  0  0  0  0  0  0  0  0
  -18.8775   -4.8258   11.5128 C   0  0  0  0  0  0  0  0  0  0  0  0
  -19.5160   -0.5576   13.1947 O   0  0  0  0  0  0  0  0  0  0  0  0
  -20.2517   -3.2431   15.6052 O   0  0  0  0  0  0  0  0  0  0  0  0
  -20.3109   -1.0544   17.1901 O   0  0  0  0  0  0  0  0  0  0  0  0
  -19.8254    1.4643   17.6027 O   0  0  0  0  0  0  0  0  0  0  0  0
  -18.5778    4.0445   13.8204 O   0  0  0  0  0  0  0  0  0  0  0  0
  -19.4113   -1.8462   13.8205 C   0  0  0  0  0  0  0  0  0  0  0  0
  -20.4140   -1.9885   14.9670 C   0  0  0  0  0  0  0  0  0  0  0  0
  -20.1449   -0.9026   15.9857 C   0  0  0  0  0  0  0  0  0  0  0  0
  -19.6966    0.3914   15.4347 C   0  0  0  0  0  0  0  0  0  0  0  0
  -19.4239    0.4925   14.0687 C   0  0  0  0  0  0  0  0  0  0  0  0
  -19.5742    1.5093   16.2645 C   0  0  0  0  0  0  0  0  0  0  0  0
  -19.0609    1.7258   13.5253 C   0  0  0  0  0  0  0  0  0  0  0  0
  -18.9415    2.8444   14.3504 C   0  0  0  0  0  0  0  0  0  0  0  0
  -19.1930    2.7351   15.7180 C   0  0  0  0  0  0  0  0  0  0  0  0
  -20.4203   -3.9544   14.9676 H   0  0  0  0  0  0  0  0  0  0  0  0
  -20.0837    0.6579   18.0040 H   0  0  0  0  0  0  0  0  0  0  0  0
  -18.4087    4.1190   12.9018 H   0  0  0  0  0  0  0  0  0  0  0  0
  -27.4493   -4.6654    7.0768 O   0  0  0  0  0  0  0  0  0  0  0  0
  -23.5673   -4.5701    8.5446 C   0  0  0  0  0  0  0  0  0  0  0  0
  -24.0692   -3.4758    7.8407 C   0  0  0  0  0  0  0  0  0  0  0  0
  -24.3682   -5.6924    8.7543 C   0  0  0  0  0  0  0  0  0  0  0  0
  -25.3733   -3.5037    7.3463 C   0  0  0  0  0  0  0  0  0  0  0  0
  -25.6722   -5.7202    8.2602 C   0  0  0  0  0  0  0  0  0  0  0  0
  -26.1748   -4.6260    7.5560 C   0  0  0  0  0  0  0  0  0  0  0  0
  -27.7944   -3.9345    6.6028 H   0  0  0  0  0  0  0  0  0  0  0  0
  -25.8525   -2.4294    6.6596 O   0  0  0  0  0  0  0  0  0  0  0  0
  -25.3522   -2.2283    5.3391 C   0  0  0  0  0  0  0  0  0  0  0  0
  -20.1973   -7.0396    7.7863 O   0  0  0  0  0  0  0  0  0  0  0  0
  -21.5459   -6.8482    8.1718 C   0  0  0  0  0  0  0  0  0  0  0  0
  -20.1621   -7.6216    7.0112 H   0  0  0  0  0  0  0  0  0  0  0  0
  1  3  1  0  0  0
  1  6  1  0  0  0
  2  4  1  0  0  0
  2  7  1  0  0  0
 11 16  1  0  0  0
 11 20  1  0  0  0
 17 12  1  0  0  0
 38 39  1  0  0  0
 13 18  2  0  0  0
 14 21  1  0  0  0
 36 32  1  0  0  0
 36 37  1  0  0  0
 15 23  1  0  0  0
 28 34  1  0  0  0
  3  4  1  0  0  0
  3 29  1  0  0  0
  4 39  1  0  0  0
 16  5  1  0  0  0
 16 17  1  0  0  0
  5  8  2  0  0  0
  5  9  1  0  0  0
 17 18  1  0  0  0
  6  7  2  0  0  0
  6  8  1  0  0  0
  7 10  1  0  0  0
 29 30  2  0  0  0
 29 31  1  0  0  0
  9 10  2  0  0  0
 18 19  1  0  0  0
 19 20  1  0  0  0
 19 21  2  0  0  0
 20 22  2  0  0  0
 30 32  1  0  0  0
 31 33  2  0  0  0
 21 24  1  0  0  0
 22 23  1  0  0  0
 32 34  2  0  0  0
 33 34  1  0  0  0
 23 24  2  0  0  0
 12 25  1  0  0  0
 38 40  1  0  0  0
 14 26  1  0  0  0
 15 27  1  0  0  0
 28 35  1  0  0  0
M  END
> <PUBCHEM_COMPOUND_CID>
31553

> <PUBCHEM_CONFORMER_RMSD>
0.8

> <PUBCHEM_CONFORMER_DIVERSEORDER>
1
106
130
72
44
97
119
114
105
62
139
32
117
75
43
79
127
29
2
18
101
98
137
63
140
126
56
93
4
38
67
30
125
115
19
142
77
92
96
50
133
129
121
124
107
95
141
22
3
70
103
99
11
49
108
90
64
76
20
131
109
59
65
122
14
71
9
7
69
102
55
51
37
82
134
57
81
74
113
47
80
87
13
58
60
110
123
40
39
23
111
138
21
83
135
128
36
16
48
112
54
68
25
118
10
31
84
94
120
46
91
66
132
27
17
100
35
12
45
53
26
28
8
143
41
33
86
78
136
5
88
85
24
15
34
61
6
89
73
52
42
116
104

> <PUBCHEM_MMFF94_PARTIAL_CHARGES>
48
1 -0.36
10 -0.53
11 0.42
12 0.28
13 0.42
14 -0.14
15 0.34
16 0.08
17 0.08
18 -0.14
19 -0.15
2 -0.36
20 0.28
21 -0.15
22 0.42
23 -0.15
24 0.09
25 0.08
26 -0.15
27 -0.15
28 0.08
29 -0.15
3 -0.36
30 0.08
31 -0.15
32 0.08
33 -0.15
34 0.08
35 0.28
4 -0.68
40 0.15
43 0.15
44 0.15
45 0.15
46 0.15
47 0.15
48 0.4
49 0.15
5 -0.68
50 0.15
51 0.4
52 0.45
53 0.45
54 0.45
6 -0.57
7 -0.53
8 -0.36
9 -0.53

> <PUBCHEM_EFFECTIVE_ROTOR_COUNT>
5.4

> <PUBCHEM_PHARMACOPHORE_FEATURES>
17
1 1 acceptor
1 10 donor
1 2 acceptor
1 3 acceptor
1 4 acceptor
1 4 donor
1 5 acceptor
1 5 donor
1 6 acceptor
1 7 donor
1 8 acceptor
1 9 donor
6 1 2 11 12 16 17 rings
6 14 16 17 19 21 23 rings
6 18 26 27 30 31 34 rings
6 24 25 28 29 32 33 rings
6 3 13 15 22 24 25 rings

> <PUBCHEM_HEAVY_ATOM_COUNT>
35

> <PUBCHEM_ATOM_DEF_STEREO_COUNT>
4

> <PUBCHEM_ATOM_UDEF_STEREO_COUNT>
0

> <PUBCHEM_BOND_DEF_STEREO_COUNT>
0

> <PUBCHEM_BOND_UDEF_STEREO_COUNT>
0

> <PUBCHEM_ISOTOPIC_ATOM_COUNT>
0

> <PUBCHEM_COMPONENT_COUNT>
1

> <PUBCHEM_CACTVS_TAUTO_COUNT>
117

> <PUBCHEM_CONFORMER_ID>
00007B4100000001

> <PUBCHEM_MMFF94_ENERGY>
117.2273

> <PUBCHEM_FEATURE_SELFOVERLAP>
86.363

> <PUBCHEM_SHAPE_FINGERPRINT>
10 15 17167864179535985733
10319926 262 16081088130831053623
10554248 39 18271517607183797190
11273773 42 18131630114737235673
11331351 85 17341806721930767490
11410812 94 15984835809442061408
11475781 23 14548730660599342899
1200032 147 18261399966410956138
12236239 1 17703214110984409639
12390115 104 18339364174793061387
12422481 6 17168409546220066172
12975358 362 18113626655568356525
13383665 225 17897179102699992046
13627167 48 17988086595145633201
13726171 33 17753345450484528780
13878862 14 18264752316780893310
14118638 360 18341604979791363983
14150022 121 18192438687285454051
14294032 229 18115598195579777822
14747281 78 17986697925002656662
14840074 17 18343019974247294581
15064981 194 17844523512963511917
15081414 286 18334011688133569924
15131766 46 18342727500128403157
15183329 4 16630811006045310861
15297060 5 18262806293528619900
15513586 35 17100879916695261580
15519825 34 14129346247030757713
15530120 55 16055743446839517748
15685185 35 18270963578072979433
1577012 14 17846498115419095617
18393751 57 17967530160776745995
19304671 126 17846225496834241400
19309040 13 18271245023348519718
19377110 9 13118005491635712846
19958102 18 13470692533626197813
20691028 202 18410857659320566881
21033648 144 18409718561380163463
21033648 29 17604143723896396471
21033650 10 15984834717898057707
22122407 14 18198067972070789209
22311459 1 18194961847111797898
23081809 10 17917703587702806283
23522609 53 17846508002265220697
23559900 14 18412536597262079170
23569914 152 16555962723111461636
249057 25 17845636067890254575
25269216 80 16988277694639972823
2748736 6 18411409644169779584
312425 54 14201381764514686744
3178227 256 18188490151983139978
34797466 226 14404602360167732363
3504750 166 12035711108086252483
3610482 184 17775000211222055983
38570 142 18131361799355456747
397830 11 16370727041001203449
3986486 107 17917446349664962484
4258327 124 18335132129653749535
42767 28 15339126761926265012
437795 70 16917355856557446808
50009960 94 11813968166171908276
5104073 3 18334569161666611994
513532 50 16199858554027367706
5364581 5 16877949386152046525
57527293 21 17458338662977929842
57724786 102 18410855443238800522
59682541 52 17060069133738810252
6608658 132 17632859699001973345
6697151 62 17320108971699185699
6712543 237 14779256502231170161
9962374 69 18265598919212919946

> <PUBCHEM_SHAPE_MULTIPOLES>
661.59
21.8
3.61
2.26
6.27
2.07
-0.73
-21.11
0.45
-6.6
0.51
2.19
-1.41
-2.1

> <PUBCHEM_SHAPE_SELFOVERLAP>
1473.277

> <PUBCHEM_SHAPE_VOLUME>
349.4

> <PUBCHEM_COORDINATE_TYPE>
2
5
10

> <minimizedAffinity>
-4.62058

> <CNNscore>
0.3351683021

> <CNNaffinity>
5.0507006645

> <CNN_VS>
1.6928347349

> <CNNaffinity_variance>
0.9421389699

$$$$
31553


 40 44  0  0  0  0  0  0  0  0999 V2000
  -23.6839   -3.6009   11.5299 O   0  0  0  0  0  0  0  0  0  0  0  0
  -26.3541   -4.6111   11.8965 O   0  0  0  0  0  0  0  0  0  0  0  0
  -23.9920   -4.6493   12.4658 C   0  0  0  0  0  0  0  0  0  0  0  0
  -25.1964   -5.4622   11.9633 C   0  0  0  0  0  0  0  0  0  0  0  0
  -25.6878   -0.9708   10.0073 C   0  0  0  0  0  0  0  0  0  0  0  0
  -24.7969   -2.9295   11.1028 C   0  0  0  0  0  0  0  0  0  0  0  0
  -26.0909   -3.4139   11.2894 C   0  0  0  0  0  0  0  0  0  0  0  0
  -24.5930   -1.7145   10.4481 C   0  0  0  0  0  0  0  0  0  0  0  0
  -26.9836   -1.4421   10.2189 C   0  0  0  0  0  0  0  0  0  0  0  0
  -27.1866   -2.6633   10.8617 C   0  0  0  0  0  0  0  0  0  0  0  0
  -24.0579    0.6196    9.3219 O   0  0  0  0  0  0  0  0  0  0  0  0
  -27.4113    0.1275    7.8810 O   0  0  0  0  0  0  0  0  0  0  0  0
  -26.4777    2.1884    6.4021 O   0  0  0  0  0  0  0  0  0  0  0  0
  -24.7461    4.0783    5.9786 O   0  0  0  0  0  0  0  0  0  0  0  0
  -20.8343    4.0295    8.6648 O   0  0  0  0  0  0  0  0  0  0  0  0
  -25.4695    0.3547    9.3024 C   0  0  0  0  0  0  0  0  0  0  0  0
  -26.0092    0.3316    7.8713 C   0  0  0  0  0  0  0  0  0  0  0  0
  -25.7319    1.6716    7.2256 C   0  0  0  0  0  0  0  0  0  0  0  0
  -24.4669    2.3208    7.6220 C   0  0  0  0  0  0  0  0  0  0  0  0
  -23.6957    1.7481    8.6359 C   0  0  0  0  0  0  0  0  0  0  0  0
  -24.0315    3.4785    6.9714 C   0  0  0  0  0  0  0  0  0  0  0  0
  -22.4673    2.3168    8.9758 C   0  0  0  0  0  0  0  0  0  0  0  0
  -22.0282    3.4704    8.3254 C   0  0  0  0  0  0  0  0  0  0  0  0
  -22.8112    4.0525    7.3286 C   0  0  0  0  0  0  0  0  0  0  0  0
  -27.6106   -0.7283    8.2920 H   0  0  0  0  0  0  0  0  0  0  0  0
  -25.5701    3.7204    5.7126 H   0  0  0  0  0  0  0  0  0  0  0  0
  -20.3076    3.6392    9.3343 H   0  0  0  0  0  0  0  0  0  0  0  0
  -19.2767   -7.7194   13.1184 O   0  0  0  0  0  0  0  0  0  0  0  0
  -22.7314   -5.4683   12.6372 C   0  0  0  0  0  0  0  0  0  0  0  0
  -21.7499   -5.4522   11.6465 C   0  0  0  0  0  0  0  0  0  0  0  0
  -22.5516   -6.2391   13.7856 C   0  0  0  0  0  0  0  0  0  0  0  0
  -20.5879   -6.2076   11.8042 C   0  0  0  0  0  0  0  0  0  0  0  0
  -21.3898   -6.9946   13.9432 C   0  0  0  0  0  0  0  0  0  0  0  0
  -20.4078   -6.9788   12.9527 C   0  0  0  0  0  0  0  0  0  0  0  0
  -18.6123   -7.7143   12.4577 H   0  0  0  0  0  0  0  0  0  0  0  0
  -19.6358   -6.1835   10.8304 O   0  0  0  0  0  0  0  0  0  0  0  0
  -18.3759   -5.6075   11.1696 C   0  0  0  0  0  0  0  0  0  0  0  0
  -26.6461   -6.2077   13.7098 O   0  0  0  0  0  0  0  0  0  0  0  0
  -25.5655   -6.6161   12.8915 C   0  0  0  0  0  0  0  0  0  0  0  0
  -26.8920   -6.9323   14.3060 H   0  0  0  0  0  0  0  0  0  0  0  0
  1  3  1  0  0  0
  1  6  1  0  0  0
  2  4  1  0  0  0
  2  7  1  0  0  0
 11 16  1  0  0  0
 11 20  1  0  0  0
 17 12  1  0  0  0
 38 39  1  0  0  0
 13 18  2  0  0  0
 14 21  1  0  0  0
 36 32  1  0  0  0
 36 37  1  0  0  0
 15 23  1  0  0  0
 28 34  1  0  0  0
  3  4  1  0  0  0
  3 29  1  0  0  0
  4 39  1  0  0  0
 16  5  1  0  0  0
 16 17  1  0  0  0
  5  8  2  0  0  0
  5  9  1  0  0  0
 17 18  1  0  0  0
  6  7  2  0  0  0
  6  8  1  0  0  0
  7 10  1  0  0  0
 29 30  2  0  0  0
 29 31  1  0  0  0
  9 10  2  0  0  0
 18 19  1  0  0  0
 19 20  1  0  0  0
 19 21  2  0  0  0
 20 22  2  0  0  0
 30 32  1  0  0  0
 31 33  2  0  0  0
 21 24  1  0  0  0
 22 23  1  0  0  0
 32 34  2  0  0  0
 33 34  1  0  0  0
 23 24  2  0  0  0
 12 25  1  0  0  0
 38 40  1  0  0  0
 14 26  1  0  0  0
 15 27  1  0  0  0
 28 35  1  0  0  0
M  END
> <PUBCHEM_COMPOUND_CID>
31553

> <PUBCHEM_CONFORMER_RMSD>
0.8

> <PUBCHEM_CONFORMER_DIVERSEORDER>
1
106
130
72
44
97
119
114
105
62
139
32
117
75
43
79
127
29
2
18
101
98
137
63
140
126
56
93
4
38
67
30
125
115
19
142
77
92
96
50
133
129
121
124
107
95
141
22
3
70
103
99
11
49
108
90
64
76
20
131
109
59
65
122
14
71
9
7
69
102
55
51
37
82
134
57
81
74
113
47
80
87
13
58
60
110
123
40
39
23
111
138
21
83
135
128
36
16
48
112
54
68
25
118
10
31
84
94
120
46
91
66
132
27
17
100
35
12
45
53
26
28
8
143
41
33
86
78
136
5
88
85
24
15
34
61
6
89
73
52
42
116
104

> <PUBCHEM_MMFF94_PARTIAL_CHARGES>
48
1 -0.36
10 -0.53
11 0.42
12 0.28
13 0.42
14 -0.14
15 0.34
16 0.08
17 0.08
18 -0.14
19 -0.15
2 -0.36
20 0.28
21 -0.15
22 0.42
23 -0.15
24 0.09
25 0.08
26 -0.15
27 -0.15
28 0.08
29 -0.15
3 -0.36
30 0.08
31 -0.15
32 0.08
33 -0.15
34 0.08
35 0.28
4 -0.68
40 0.15
43 0.15
44 0.15
45 0.15
46 0.15
47 0.15
48 0.4
49 0.15
5 -0.68
50 0.15
51 0.4
52 0.45
53 0.45
54 0.45
6 -0.57
7 -0.53
8 -0.36
9 -0.53

> <PUBCHEM_EFFECTIVE_ROTOR_COUNT>
5.4

> <PUBCHEM_PHARMACOPHORE_FEATURES>
17
1 1 acceptor
1 10 donor
1 2 acceptor
1 3 acceptor
1 4 acceptor
1 4 donor
1 5 acceptor
1 5 donor
1 6 acceptor
1 7 donor
1 8 acceptor
1 9 donor
6 1 2 11 12 16 17 rings
6 14 16 17 19 21 23 rings
6 18 26 27 30 31 34 rings
6 24 25 28 29 32 33 rings
6 3 13 15 22 24 25 rings

> <PUBCHEM_HEAVY_ATOM_COUNT>
35

> <PUBCHEM_ATOM_DEF_STEREO_COUNT>
4

> <PUBCHEM_ATOM_UDEF_STEREO_COUNT>
0

> <PUBCHEM_BOND_DEF_STEREO_COUNT>
0

> <PUBCHEM_BOND_UDEF_STEREO_COUNT>
0

> <PUBCHEM_ISOTOPIC_ATOM_COUNT>
0

> <PUBCHEM_COMPONENT_COUNT>
1

> <PUBCHEM_CACTVS_TAUTO_COUNT>
117

> <PUBCHEM_CONFORMER_ID>
00007B4100000001

> <PUBCHEM_MMFF94_ENERGY>
117.2273

> <PUBCHEM_FEATURE_SELFOVERLAP>
86.363

> <PUBCHEM_SHAPE_FINGERPRINT>
10 15 17167864179535985733
10319926 262 16081088130831053623
10554248 39 18271517607183797190
11273773 42 18131630114737235673
11331351 85 17341806721930767490
11410812 94 15984835809442061408
11475781 23 14548730660599342899
1200032 147 18261399966410956138
12236239 1 17703214110984409639
12390115 104 18339364174793061387
12422481 6 17168409546220066172
12975358 362 18113626655568356525
13383665 225 17897179102699992046
13627167 48 17988086595145633201
13726171 33 17753345450484528780
13878862 14 18264752316780893310
14118638 360 18341604979791363983
14150022 121 18192438687285454051
14294032 229 18115598195579777822
14747281 78 17986697925002656662
14840074 17 18343019974247294581
15064981 194 17844523512963511917
15081414 286 18334011688133569924
15131766 46 18342727500128403157
15183329 4 16630811006045310861
15297060 5 18262806293528619900
15513586 35 17100879916695261580
15519825 34 14129346247030757713
15530120 55 16055743446839517748
15685185 35 18270963578072979433
1577012 14 17846498115419095617
18393751 57 17967530160776745995
19304671 126 17846225496834241400
19309040 13 18271245023348519718
19377110 9 13118005491635712846
19958102 18 13470692533626197813
20691028 202 18410857659320566881
21033648 144 18409718561380163463
21033648 29 17604143723896396471
21033650 10 15984834717898057707
22122407 14 18198067972070789209
22311459 1 18194961847111797898
23081809 10 17917703587702806283
23522609 53 17846508002265220697
23559900 14 18412536597262079170
23569914 152 16555962723111461636
249057 25 17845636067890254575
25269216 80 16988277694639972823
2748736 6 18411409644169779584
312425 54 14201381764514686744
3178227 256 18188490151983139978
34797466 226 14404602360167732363
3504750 166 12035711108086252483
3610482 184 17775000211222055983
38570 142 18131361799355456747
397830 11 16370727041001203449
3986486 107 17917446349664962484
4258327 124 18335132129653749535
42767 28 15339126761926265012
437795 70 16917355856557446808
50009960 94 11813968166171908276
5104073 3 18334569161666611994
513532 50 16199858554027367706
5364581 5 16877949386152046525
57527293 21 17458338662977929842
57724786 102 18410855443238800522
59682541 52 17060069133738810252
6608658 132 17632859699001973345
6697151 62 17320108971699185699
6712543 237 14779256502231170161
9962374 69 18265598919212919946

> <PUBCHEM_SHAPE_MULTIPOLES>
661.59
21.8
3.61
2.26
6.27
2.07
-0.73
-21.11
0.45
-6.6
0.51
2.19
-1.41
-2.1

> <PUBCHEM_SHAPE_SELFOVERLAP>
1473.277

> <PUBCHEM_SHAPE_VOLUME>
349.4

> <PUBCHEM_COORDINATE_TYPE>
2
5
10

> <minimizedAffinity>
3.26199

> <CNNscore>
0.3157107830

> <CNNaffinity>
4.6390242577

> <CNN_VS>
1.4645899534

> <CNNaffinity_variance>
0.3404876590

$$$$
31553


 40 44  0  0  0  0  0  0  0  0999 V2000
  -22.9993    0.6365   11.4280 O   0  0  0  0  0  0  0  0  0  0  0  0
  -25.4353    2.1658   11.5371 O   0  0  0  0  0  0  0  0  0  0  0  0
  -23.0183    2.0378   11.7531 C   0  0  0  0  0  0  0  0  0  0  0  0
  -24.3436    2.3968   12.4448 C   0  0  0  0  0  0  0  0  0  0  0  0
  -25.3106   -1.5198    9.6226 C   0  0  0  0  0  0  0  0  0  0  0  0
  -24.1705    0.2084   10.8651 C   0  0  0  0  0  0  0  0  0  0  0  0
  -25.3480    0.9537   10.9091 C   0  0  0  0  0  0  0  0  0  0  0  0
  -24.1542   -1.0361   10.2348 C   0  0  0  0  0  0  0  0  0  0  0  0
  -26.4813   -0.7615    9.6424 C   0  0  0  0  0  0  0  0  0  0  0  0
  -26.5008    0.4768   10.2843 C   0  0  0  0  0  0  0  0  0  0  0  0
  -24.4906   -3.7495    9.7313 O   0  0  0  0  0  0  0  0  0  0  0  0
  -27.4590   -2.5712    7.8973 O   0  0  0  0  0  0  0  0  0  0  0  0
  -27.4453   -5.2032    7.2821 O   0  0  0  0  0  0  0  0  0  0  0  0
  -26.2607   -7.5146    7.2203 O   0  0  0  0  0  0  0  0  0  0  0  0
  -22.2194   -7.9076    9.6766 O   0  0  0  0  0  0  0  0  0  0  0  0
  -25.2937   -2.8691    8.9293 C   0  0  0  0  0  0  0  0  0  0  0  0
  -26.7054   -3.4265    8.7387 C   0  0  0  0  0  0  0  0  0  0  0  0
  -26.6073   -4.7801    8.0696 C   0  0  0  0  0  0  0  0  0  0  0  0
  -25.4400   -5.5979    8.4535 C   0  0  0  0  0  0  0  0  0  0  0  0
  -24.4579   -5.0402    9.2750 C   0  0  0  0  0  0  0  0  0  0  0  0
  -25.3328   -6.9235    8.0238 C   0  0  0  0  0  0  0  0  0  0  0  0
  -23.3821   -5.8233    9.6966 C   0  0  0  0  0  0  0  0  0  0  0  0
  -23.2744   -7.1480    9.2724 C   0  0  0  0  0  0  0  0  0  0  0  0
  -24.2454   -7.6953    8.4339 C   0  0  0  0  0  0  0  0  0  0  0  0
  -27.5337   -1.6962    8.3092 H   0  0  0  0  0  0  0  0  0  0  0  0
  -27.0042   -7.0265    6.9256 H   0  0  0  0  0  0  0  0  0  0  0  0
  -21.5666   -7.5408   10.2399 H   0  0  0  0  0  0  0  0  0  0  0  0
  -18.4404    3.0598   14.9289 O   0  0  0  0  0  0  0  0  0  0  0  0
  -21.7944    2.3078   12.6010 C   0  0  0  0  0  0  0  0  0  0  0  0
  -20.8533    1.2993   12.8071 C   0  0  0  0  0  0  0  0  0  0  0  0
  -21.6082    3.5646   13.1760 C   0  0  0  0  0  0  0  0  0  0  0  0
  -19.7253    1.5479   13.5891 C   0  0  0  0  0  0  0  0  0  0  0  0
  -20.4803    3.8131   13.9581 C   0  0  0  0  0  0  0  0  0  0  0  0
  -19.5388    2.8049   14.1645 C   0  0  0  0  0  0  0  0  0  0  0  0
  -17.8033    2.3880   15.0724 H   0  0  0  0  0  0  0  0  0  0  0  0
  -18.8125    0.5556   13.7828 O   0  0  0  0  0  0  0  0  0  0  0  0
  -18.3635   -0.1472   12.6257 C   0  0  0  0  0  0  0  0  0  0  0  0
  -25.5531    4.0397   13.6879 O   0  0  0  0  0  0  0  0  0  0  0  0
  -24.4258    3.8661   12.8494 C   0  0  0  0  0  0  0  0  0  0  0  0
  -25.6183    4.9704   13.9535 H   0  0  0  0  0  0  0  0  0  0  0  0
  1  3  1  0  0  0
  1  6  1  0  0  0
  2  4  1  0  0  0
  2  7  1  0  0  0
 11 16  1  0  0  0
 11 20  1  0  0  0
 17 12  1  0  0  0
 38 39  1  0  0  0
 13 18  2  0  0  0
 14 21  1  0  0  0
 36 32  1  0  0  0
 36 37  1  0  0  0
 15 23  1  0  0  0
 28 34  1  0  0  0
  3  4  1  0  0  0
  3 29  1  0  0  0
  4 39  1  0  0  0
 16  5  1  0  0  0
 16 17  1  0  0  0
  5  8  2  0  0  0
  5  9  1  0  0  0
 17 18  1  0  0  0
  6  7  2  0  0  0
  6  8  1  0  0  0
  7 10  1  0  0  0
 29 30  2  0  0  0
 29 31  1  0  0  0
  9 10  2  0  0  0
 18 19  1  0  0  0
 19 20  1  0  0  0
 19 21  2  0  0  0
 20 22  2  0  0  0
 30 32  1  0  0  0
 31 33  2  0  0  0
 21 24  1  0  0  0
 22 23  1  0  0  0
 32 34  2  0  0  0
 33 34  1  0  0  0
 23 24  2  0  0  0
 12 25  1  0  0  0
 38 40  1  0  0  0
 14 26  1  0  0  0
 15 27  1  0  0  0
 28 35  1  0  0  0
M  END
> <PUBCHEM_COMPOUND_CID>
31553

> <PUBCHEM_CONFORMER_RMSD>
0.8

> <PUBCHEM_CONFORMER_DIVERSEORDER>
1
106
130
72
44
97
119
114
105
62
139
32
117
75
43
79
127
29
2
18
101
98
137
63
140
126
56
93
4
38
67
30
125
115
19
142
77
92
96
50
133
129
121
124
107
95
141
22
3
70
103
99
11
49
108
90
64
76
20
131
109
59
65
122
14
71
9
7
69
102
55
51
37
82
134
57
81
74
113
47
80
87
13
58
60
110
123
40
39
23
111
138
21
83
135
128
36
16
48
112
54
68
25
118
10
31
84
94
120
46
91
66
132
27
17
100
35
12
45
53
26
28
8
143
41
33
86
78
136
5
88
85
24
15
34
61
6
89
73
52
42
116
104

> <PUBCHEM_MMFF94_PARTIAL_CHARGES>
48
1 -0.36
10 -0.53
11 0.42
12 0.28
13 0.42
14 -0.14
15 0.34
16 0.08
17 0.08
18 -0.14
19 -0.15
2 -0.36
20 0.28
21 -0.15
22 0.42
23 -0.15
24 0.09
25 0.08
26 -0.15
27 -0.15
28 0.08
29 -0.15
3 -0.36
30 0.08
31 -0.15
32 0.08
33 -0.15
34 0.08
35 0.28
4 -0.68
40 0.15
43 0.15
44 0.15
45 0.15
46 0.15
47 0.15
48 0.4
49 0.15
5 -0.68
50 0.15
51 0.4
52 0.45
53 0.45
54 0.45
6 -0.57
7 -0.53
8 -0.36
9 -0.53

> <PUBCHEM_EFFECTIVE_ROTOR_COUNT>
5.4

> <PUBCHEM_PHARMACOPHORE_FEATURES>
17
1 1 acceptor
1 10 donor
1 2 acceptor
1 3 acceptor
1 4 acceptor
1 4 donor
1 5 acceptor
1 5 donor
1 6 acceptor
1 7 donor
1 8 acceptor
1 9 donor
6 1 2 11 12 16 17 rings
6 14 16 17 19 21 23 rings
6 18 26 27 30 31 34 rings
6 24 25 28 29 32 33 rings
6 3 13 15 22 24 25 rings

> <PUBCHEM_HEAVY_ATOM_COUNT>
35

> <PUBCHEM_ATOM_DEF_STEREO_COUNT>
4

> <PUBCHEM_ATOM_UDEF_STEREO_COUNT>
0

> <PUBCHEM_BOND_DEF_STEREO_COUNT>
0

> <PUBCHEM_BOND_UDEF_STEREO_COUNT>
0

> <PUBCHEM_ISOTOPIC_ATOM_COUNT>
0

> <PUBCHEM_COMPONENT_COUNT>
1

> <PUBCHEM_CACTVS_TAUTO_COUNT>
117

> <PUBCHEM_CONFORMER_ID>
00007B4100000001

> <PUBCHEM_MMFF94_ENERGY>
117.2273

> <PUBCHEM_FEATURE_SELFOVERLAP>
86.363

> <PUBCHEM_SHAPE_FINGERPRINT>
10 15 17167864179535985733
10319926 262 16081088130831053623
10554248 39 18271517607183797190
11273773 42 18131630114737235673
11331351 85 17341806721930767490
11410812 94 15984835809442061408
11475781 23 14548730660599342899
1200032 147 18261399966410956138
12236239 1 17703214110984409639
12390115 104 18339364174793061387
12422481 6 17168409546220066172
12975358 362 18113626655568356525
13383665 225 17897179102699992046
13627167 48 17988086595145633201
13726171 33 17753345450484528780
13878862 14 18264752316780893310
14118638 360 18341604979791363983
14150022 121 18192438687285454051
14294032 229 18115598195579777822
14747281 78 17986697925002656662
14840074 17 18343019974247294581
15064981 194 17844523512963511917
15081414 286 18334011688133569924
15131766 46 18342727500128403157
15183329 4 16630811006045310861
15297060 5 18262806293528619900
15513586 35 17100879916695261580
15519825 34 14129346247030757713
15530120 55 16055743446839517748
15685185 35 18270963578072979433
1577012 14 17846498115419095617
18393751 57 17967530160776745995
19304671 126 17846225496834241400
19309040 13 18271245023348519718
19377110 9 13118005491635712846
19958102 18 13470692533626197813
20691028 202 18410857659320566881
21033648 144 18409718561380163463
21033648 29 17604143723896396471
21033650 10 15984834717898057707
22122407 14 18198067972070789209
22311459 1 18194961847111797898
23081809 10 17917703587702806283
23522609 53 17846508002265220697
23559900 14 18412536597262079170
23569914 152 16555962723111461636
249057 25 17845636067890254575
25269216 80 16988277694639972823
2748736 6 18411409644169779584
312425 54 14201381764514686744
3178227 256 18188490151983139978
34797466 226 14404602360167732363
3504750 166 12035711108086252483
3610482 184 17775000211222055983
38570 142 18131361799355456747
397830 11 16370727041001203449
3986486 107 17917446349664962484
4258327 124 18335132129653749535
42767 28 15339126761926265012
437795 70 16917355856557446808
50009960 94 11813968166171908276
5104073 3 18334569161666611994
513532 50 16199858554027367706
5364581 5 16877949386152046525
57527293 21 17458338662977929842
57724786 102 18410855443238800522
59682541 52 17060069133738810252
6608658 132 17632859699001973345
6697151 62 17320108971699185699
6712543 237 14779256502231170161
9962374 69 18265598919212919946

> <PUBCHEM_SHAPE_MULTIPOLES>
661.59
21.8
3.61
2.26
6.27
2.07
-0.73
-21.11
0.45
-6.6
0.51
2.19
-1.41
-2.1

> <PUBCHEM_SHAPE_SELFOVERLAP>
1473.277

> <PUBCHEM_SHAPE_VOLUME>
349.4

> <PUBCHEM_COORDINATE_TYPE>
2
5
10

> <minimizedAffinity>
-5.67847

> <CNNscore>
0.2919390500

> <CNNaffinity>
4.7229824066

> <CNN_VS>
1.3788230419

> <CNNaffinity_variance>
0.6680753827

$$$$
31553


 40 44  0  0  0  0  0  0  0  0999 V2000
  -20.9560   -2.4965   13.6585 O   0  0  0  0  0  0  0  0  0  0  0  0
  -18.9738   -2.1232   11.6051 O   0  0  0  0  0  0  0  0  0  0  0  0
  -19.5910   -2.1523   13.9553 C   0  0  0  0  0  0  0  0  0  0  0  0
  -18.9969   -1.3265   12.8025 C   0  0  0  0  0  0  0  0  0  0  0  0
  -22.5435   -4.0900   10.7964 C   0  0  0  0  0  0  0  0  0  0  0  0
  -21.1215   -2.9449   12.3766 C   0  0  0  0  0  0  0  0  0  0  0  0
  -20.1571   -2.7731   11.3844 C   0  0  0  0  0  0  0  0  0  0  0  0
  -22.3222   -3.5903   12.0799 C   0  0  0  0  0  0  0  0  0  0  0  0
  -21.5669   -3.9428    9.8112 C   0  0  0  0  0  0  0  0  0  0  0  0
  -20.3720   -3.2856   10.1046 C   0  0  0  0  0  0  0  0  0  0  0  0
  -24.0979   -4.6069    9.0723 O   0  0  0  0  0  0  0  0  0  0  0  0
  -23.5911   -6.4509   12.2198 O   0  0  0  0  0  0  0  0  0  0  0  0
  -25.5976   -7.8575   11.0790 O   0  0  0  0  0  0  0  0  0  0  0  0
  -27.4586   -8.1106    9.2838 O   0  0  0  0  0  0  0  0  0  0  0  0
  -27.4579   -4.9447    5.7486 O   0  0  0  0  0  0  0  0  0  0  0  0
  -23.8449   -4.7995   10.4730 C   0  0  0  0  0  0  0  0  0  0  0  0
  -23.7827   -6.2868   10.8255 C   0  0  0  0  0  0  0  0  0  0  0  0
  -25.0998   -6.9305   10.4511 C   0  0  0  0  0  0  0  0  0  0  0  0
  -25.7498   -6.3943    9.2392 C   0  0  0  0  0  0  0  0  0  0  0  0
  -25.2017   -5.2735    8.6113 C   0  0  0  0  0  0  0  0  0  0  0  0
  -26.8832   -7.0173    8.7097 C   0  0  0  0  0  0  0  0  0  0  0  0
  -25.7699   -4.7958    7.4294 C   0  0  0  0  0  0  0  0  0  0  0  0
  -26.8991   -5.4179    6.8963 C   0  0  0  0  0  0  0  0  0  0  0  0
  -27.4573   -6.5235    7.5379 C   0  0  0  0  0  0  0  0  0  0  0  0
  -22.7501   -6.0441   12.4808 H   0  0  0  0  0  0  0  0  0  0  0  0
  -27.0999   -8.4695   10.0715 H   0  0  0  0  0  0  0  0  0  0  0  0
  -27.0837   -4.2021    5.3168 H   0  0  0  0  0  0  0  0  0  0  0  0
  -19.6236    0.5702   18.9225 O   0  0  0  0  0  0  0  0  0  0  0  0
  -19.6004   -1.4278   15.2837 C   0  0  0  0  0  0  0  0  0  0  0  0
  -19.8610   -2.1316   16.4593 C   0  0  0  0  0  0  0  0  0  0  0  0
  -19.3488   -0.0569   15.3318 C   0  0  0  0  0  0  0  0  0  0  0  0
  -19.8702   -1.4637   17.6839 C   0  0  0  0  0  0  0  0  0  0  0  0
  -19.3582    0.6109   16.5563 C   0  0  0  0  0  0  0  0  0  0  0  0
  -19.6186   -0.0924   17.7324 C   0  0  0  0  0  0  0  0  0  0  0  0
  -19.7977    0.1050   19.7170 H   0  0  0  0  0  0  0  0  0  0  0  0
  -20.1251   -2.1615   18.8256 O   0  0  0  0  0  0  0  0  0  0  0  0
  -21.2578   -1.7581   19.5927 C   0  0  0  0  0  0  0  0  0  0  0  0
  -16.9437   -0.6070   11.8154 O   0  0  0  0  0  0  0  0  0  0  0  0
  -17.5553   -0.8960   13.0590 C   0  0  0  0  0  0  0  0  0  0  0  0
  -16.0254   -0.3316   11.9630 H   0  0  0  0  0  0  0  0  0  0  0  0
  1  3  1  0  0  0
  1  6  1  0  0  0
  2  4  1  0  0  0
  2  7  1  0  0  0
 11 16  1  0  0  0
 11 20  1  0  0  0
 17 12  1  0  0  0
 38 39  1  0  0  0
 13 18  2  0  0  0
 14 21  1  0  0  0
 36 32  1  0  0  0
 36 37  1  0  0  0
 15 23  1  0  0  0
 28 34  1  0  0  0
  3  4  1  0  0  0
  3 29  1  0  0  0
  4 39  1  0  0  0
 16  5  1  0  0  0
 16 17  1  0  0  0
  5  8  2  0  0  0
  5  9  1  0  0  0
 17 18  1  0  0  0
  6  7  2  0  0  0
  6  8  1  0  0  0
  7 10  1  0  0  0
 29 30  2  0  0  0
 29 31  1  0  0  0
  9 10  2  0  0  0
 18 19  1  0  0  0
 19 20  1  0  0  0
 19 21  2  0  0  0
 20 22  2  0  0  0
 30 32  1  0  0  0
 31 33  2  0  0  0
 21 24  1  0  0  0
 22 23  1  0  0  0
 32 34  2  0  0  0
 33 34  1  0  0  0
 23 24  2  0  0  0
 12 25  1  0  0  0
 38 40  1  0  0  0
 14 26  1  0  0  0
 15 27  1  0  0  0
 28 35  1  0  0  0
M  END
> <PUBCHEM_COMPOUND_CID>
31553

> <PUBCHEM_CONFORMER_RMSD>
0.8

> <PUBCHEM_CONFORMER_DIVERSEORDER>
1
106
130
72
44
97
119
114
105
62
139
32
117
75
43
79
127
29
2
18
101
98
137
63
140
126
56
93
4
38
67
30
125
115
19
142
77
92
96
50
133
129
121
124
107
95
141
22
3
70
103
99
11
49
108
90
64
76
20
131
109
59
65
122
14
71
9
7
69
102
55
51
37
82
134
57
81
74
113
47
80
87
13
58
60
110
123
40
39
23
111
138
21
83
135
128
36
16
48
112
54
68
25
118
10
31
84
94
120
46
91
66
132
27
17
100
35
12
45
53
26
28
8
143
41
33
86
78
136
5
88
85
24
15
34
61
6
89
73
52
42
116
104

> <PUBCHEM_MMFF94_PARTIAL_CHARGES>
48
1 -0.36
10 -0.53
11 0.42
12 0.28
13 0.42
14 -0.14
15 0.34
16 0.08
17 0.08
18 -0.14
19 -0.15
2 -0.36
20 0.28
21 -0.15
22 0.42
23 -0.15
24 0.09
25 0.08
26 -0.15
27 -0.15
28 0.08
29 -0.15
3 -0.36
30 0.08
31 -0.15
32 0.08
33 -0.15
34 0.08
35 0.28
4 -0.68
40 0.15
43 0.15
44 0.15
45 0.15
46 0.15
47 0.15
48 0.4
49 0.15
5 -0.68
50 0.15
51 0.4
52 0.45
53 0.45
54 0.45
6 -0.57
7 -0.53
8 -0.36
9 -0.53

> <PUBCHEM_EFFECTIVE_ROTOR_COUNT>
5.4

> <PUBCHEM_PHARMACOPHORE_FEATURES>
17
1 1 acceptor
1 10 donor
1 2 acceptor
1 3 acceptor
1 4 acceptor
1 4 donor
1 5 acceptor
1 5 donor
1 6 acceptor
1 7 donor
1 8 acceptor
1 9 donor
6 1 2 11 12 16 17 rings
6 14 16 17 19 21 23 rings
6 18 26 27 30 31 34 rings
6 24 25 28 29 32 33 rings
6 3 13 15 22 24 25 rings

> <PUBCHEM_HEAVY_ATOM_COUNT>
35

> <PUBCHEM_ATOM_DEF_STEREO_COUNT>
4

> <PUBCHEM_ATOM_UDEF_STEREO_COUNT>
0

> <PUBCHEM_BOND_DEF_STEREO_COUNT>
0

> <PUBCHEM_BOND_UDEF_STEREO_COUNT>
0

> <PUBCHEM_ISOTOPIC_ATOM_COUNT>
0

> <PUBCHEM_COMPONENT_COUNT>
1

> <PUBCHEM_CACTVS_TAUTO_COUNT>
117

> <PUBCHEM_CONFORMER_ID>
00007B4100000001

> <PUBCHEM_MMFF94_ENERGY>
117.2273

> <PUBCHEM_FEATURE_SELFOVERLAP>
86.363

> <PUBCHEM_SHAPE_FINGERPRINT>
10 15 17167864179535985733
10319926 262 16081088130831053623
10554248 39 18271517607183797190
11273773 42 18131630114737235673
11331351 85 17341806721930767490
11410812 94 15984835809442061408
11475781 23 14548730660599342899
1200032 147 18261399966410956138
12236239 1 17703214110984409639
12390115 104 18339364174793061387
12422481 6 17168409546220066172
12975358 362 18113626655568356525
13383665 225 17897179102699992046
13627167 48 17988086595145633201
13726171 33 17753345450484528780
13878862 14 18264752316780893310
14118638 360 18341604979791363983
14150022 121 18192438687285454051
14294032 229 18115598195579777822
14747281 78 17986697925002656662
14840074 17 18343019974247294581
15064981 194 17844523512963511917
15081414 286 18334011688133569924
15131766 46 18342727500128403157
15183329 4 16630811006045310861
15297060 5 18262806293528619900
15513586 35 17100879916695261580
15519825 34 14129346247030757713
15530120 55 16055743446839517748
15685185 35 18270963578072979433
1577012 14 17846498115419095617
18393751 57 17967530160776745995
19304671 126 17846225496834241400
19309040 13 18271245023348519718
19377110 9 13118005491635712846
19958102 18 13470692533626197813
20691028 202 18410857659320566881
21033648 144 18409718561380163463
21033648 29 17604143723896396471
21033650 10 15984834717898057707
22122407 14 18198067972070789209
22311459 1 18194961847111797898
23081809 10 17917703587702806283
23522609 53 17846508002265220697
23559900 14 18412536597262079170
23569914 152 16555962723111461636
249057 25 17845636067890254575
25269216 80 16988277694639972823
2748736 6 18411409644169779584
312425 54 14201381764514686744
3178227 256 18188490151983139978
34797466 226 14404602360167732363
3504750 166 12035711108086252483
3610482 184 17775000211222055983
38570 142 18131361799355456747
397830 11 16370727041001203449
3986486 107 17917446349664962484
4258327 124 18335132129653749535
42767 28 15339126761926265012
437795 70 16917355856557446808
50009960 94 11813968166171908276
5104073 3 18334569161666611994
513532 50 16199858554027367706
5364581 5 16877949386152046525
57527293 21 17458338662977929842
57724786 102 18410855443238800522
59682541 52 17060069133738810252
6608658 132 17632859699001973345
6697151 62 17320108971699185699
6712543 237 14779256502231170161
9962374 69 18265598919212919946

> <PUBCHEM_SHAPE_MULTIPOLES>
661.59
21.8
3.61
2.26
6.27
2.07
-0.73
-21.11
0.45
-6.6
0.51
2.19
-1.41
-2.1

> <PUBCHEM_SHAPE_SELFOVERLAP>
1473.277

> <PUBCHEM_SHAPE_VOLUME>
349.4

> <PUBCHEM_COORDINATE_TYPE>
2
5
10

> <minimizedAffinity>
-5.82768

> <CNNscore>
0.2874640226

> <CNNaffinity>
5.2325377464

> <CNN_VS>
1.5041663647

> <CNNaffinity_variance>
0.6857693791

$$$$
31553


 40 44  0  0  0  0  0  0  0  0999 V2000
  -24.4428   -2.2694   10.5560 O   0  0  0  0  0  0  0  0  0  0  0  0
  -26.0603   -3.4023   12.6500 O   0  0  0  0  0  0  0  0  0  0  0  0
  -25.4185   -1.4999   11.2810 C   0  0  0  0  0  0  0  0  0  0  0  0
  -25.5658   -2.0528   12.7081 C   0  0  0  0  0  0  0  0  0  0  0  0
  -24.0584   -5.8369    9.9427 C   0  0  0  0  0  0  0  0  0  0  0  0
  -24.6014   -3.6178   10.7244 C   0  0  0  0  0  0  0  0  0  0  0  0
  -25.3930   -4.1666   11.7325 C   0  0  0  0  0  0  0  0  0  0  0  0
  -23.9210   -4.4527    9.8376 C   0  0  0  0  0  0  0  0  0  0  0  0
  -24.8727   -6.3851   10.9338 C   0  0  0  0  0  0  0  0  0  0  0  0
  -25.5422   -5.5505   11.8287 C   0  0  0  0  0  0  0  0  0  0  0  0
  -24.3165   -7.5527    8.3162 O   0  0  0  0  0  0  0  0  0  0  0  0
  -21.4916   -5.2110    8.6321 O   0  0  0  0  0  0  0  0  0  0  0  0
  -20.7172   -6.7213    6.5285 O   0  0  0  0  0  0  0  0  0  0  0  0
  -20.9724   -8.8276    5.0291 O   0  0  0  0  0  0  0  0  0  0  0  0
  -24.8866  -11.4352    5.6607 O   0  0  0  0  0  0  0  0  0  0  0  0
  -23.3263   -6.7470    8.9745 C   0  0  0  0  0  0  0  0  0  0  0  0
  -22.4982   -5.9513    7.9640 C   0  0  0  0  0  0  0  0  0  0  0  0
  -21.8224   -6.9204    7.0188 C   0  0  0  0  0  0  0  0  0  0  0  0
  -22.5996   -8.1293    6.6820 C   0  0  0  0  0  0  0  0  0  0  0  0
  -23.8092   -8.3665    7.3387 C   0  0  0  0  0  0  0  0  0  0  0  0
  -22.1452   -9.0111    5.6975 C   0  0  0  0  0  0  0  0  0  0  0  0
  -24.5837   -9.4721    6.9839 C   0  0  0  0  0  0  0  0  0  0  0  0
  -24.1346  -10.3520    5.9988 C   0  0  0  0  0  0  0  0  0  0  0  0
  -22.9155  -10.1243    5.3604 C   0  0  0  0  0  0  0  0  0  0  0  0
  -21.9051   -4.5824    9.2443 H   0  0  0  0  0  0  0  0  0  0  0  0
  -20.4293   -8.0907    5.2292 H   0  0  0  0  0  0  0  0  0  0  0  0
  -25.7057  -11.5890    6.0889 H   0  0  0  0  0  0  0  0  0  0  0  0
  -23.7132    3.8985   11.0919 O   0  0  0  0  0  0  0  0  0  0  0  0
  -24.9657   -0.0571   11.2290 C   0  0  0  0  0  0  0  0  0  0  0  0
  -25.7867    0.9103   10.6500 C   0  0  0  0  0  0  0  0  0  0  0  0
  -23.7278    0.3046   11.7597 C   0  0  0  0  0  0  0  0  0  0  0  0
  -25.3692    2.2404   10.6015 C   0  0  0  0  0  0  0  0  0  0  0  0
  -23.3103    1.6346   11.7111 C   0  0  0  0  0  0  0  0  0  0  0  0
  -24.1310    2.6025   11.1322 C   0  0  0  0  0  0  0  0  0  0  0  0
  -24.2586    4.5547   10.7047 H   0  0  0  0  0  0  0  0  0  0  0  0
  -26.1798    3.1767   10.0343 O   0  0  0  0  0  0  0  0  0  0  0  0
  -27.1771    2.7080    9.1288 C   0  0  0  0  0  0  0  0  0  0  0  0
  -25.8457   -0.4669   14.4728 O   0  0  0  0  0  0  0  0  0  0  0  0
  -26.5650   -1.2659   13.5518 C   0  0  0  0  0  0  0  0  0  0  0  0
  -26.4688    0.0398   15.0168 H   0  0  0  0  0  0  0  0  0  0  0  0
  1  3  1  0  0  0
  1  6  1  0  0  0
  2  4  1  0  0  0
  2  7  1  0  0  0
 11 16  1  0  0  0
 11 20  1  0  0  0
 17 12  1  0  0  0
 38 39  1  0  0  0
 13 18  2  0  0  0
 14 21  1  0  0  0
 36 32  1  0  0  0
 36 37  1  0  0  0
 15 23  1  0  0  0
 28 34  1  0  0  0
  3  4  1  0  0  0
  3 29  1  0  0  0
  4 39  1  0  0  0
 16  5  1  0  0  0
 16 17  1  0  0  0
  5  8  2  0  0  0
  5  9  1  0  0  0
 17 18  1  0  0  0
  6  7  2  0  0  0
  6  8  1  0  0  0
  7 10  1  0  0  0
 29 30  2  0  0  0
 29 31  1  0  0  0
  9 10  2  0  0  0
 18 19  1  0  0  0
 19 20  1  0  0  0
 19 21  2  0  0  0
 20 22  2  0  0  0
 30 32  1  0  0  0
 31 33  2  0  0  0
 21 24  1  0  0  0
 22 23  1  0  0  0
 32 34  2  0  0  0
 33 34  1  0  0  0
 23 24  2  0  0  0
 12 25  1  0  0  0
 38 40  1  0  0  0
 14 26  1  0  0  0
 15 27  1  0  0  0
 28 35  1  0  0  0
M  END
> <PUBCHEM_COMPOUND_CID>
31553

> <PUBCHEM_CONFORMER_RMSD>
0.8

> <PUBCHEM_CONFORMER_DIVERSEORDER>
1
106
130
72
44
97
119
114
105
62
139
32
117
75
43
79
127
29
2
18
101
98
137
63
140
126
56
93
4
38
67
30
125
115
19
142
77
92
96
50
133
129
121
124
107
95
141
22
3
70
103
99
11
49
108
90
64
76
20
131
109
59
65
122
14
71
9
7
69
102
55
51
37
82
134
57
81
74
113
47
80
87
13
58
60
110
123
40
39
23
111
138
21
83
135
128
36
16
48
112
54
68
25
118
10
31
84
94
120
46
91
66
132
27
17
100
35
12
45
53
26
28
8
143
41
33
86
78
136
5
88
85
24
15
34
61
6
89
73
52
42
116
104

> <PUBCHEM_MMFF94_PARTIAL_CHARGES>
48
1 -0.36
10 -0.53
11 0.42
12 0.28
13 0.42
14 -0.14
15 0.34
16 0.08
17 0.08
18 -0.14
19 -0.15
2 -0.36
20 0.28
21 -0.15
22 0.42
23 -0.15
24 0.09
25 0.08
26 -0.15
27 -0.15
28 0.08
29 -0.15
3 -0.36
30 0.08
31 -0.15
32 0.08
33 -0.15
34 0.08
35 0.28
4 -0.68
40 0.15
43 0.15
44 0.15
45 0.15
46 0.15
47 0.15
48 0.4
49 0.15
5 -0.68
50 0.15
51 0.4
52 0.45
53 0.45
54 0.45
6 -0.57
7 -0.53
8 -0.36
9 -0.53

> <PUBCHEM_EFFECTIVE_ROTOR_COUNT>
5.4

> <PUBCHEM_PHARMACOPHORE_FEATURES>
17
1 1 acceptor
1 10 donor
1 2 acceptor
1 3 acceptor
1 4 acceptor
1 4 donor
1 5 acceptor
1 5 donor
1 6 acceptor
1 7 donor
1 8 acceptor
1 9 donor
6 1 2 11 12 16 17 rings
6 14 16 17 19 21 23 rings
6 18 26 27 30 31 34 rings
6 24 25 28 29 32 33 rings
6 3 13 15 22 24 25 rings

> <PUBCHEM_HEAVY_ATOM_COUNT>
35

> <PUBCHEM_ATOM_DEF_STEREO_COUNT>
4

> <PUBCHEM_ATOM_UDEF_STEREO_COUNT>
0

> <PUBCHEM_BOND_DEF_STEREO_COUNT>
0

> <PUBCHEM_BOND_UDEF_STEREO_COUNT>
0

> <PUBCHEM_ISOTOPIC_ATOM_COUNT>
0

> <PUBCHEM_COMPONENT_COUNT>
1

> <PUBCHEM_CACTVS_TAUTO_COUNT>
117

> <PUBCHEM_CONFORMER_ID>
00007B4100000001

> <PUBCHEM_MMFF94_ENERGY>
117.2273

> <PUBCHEM_FEATURE_SELFOVERLAP>
86.363

> <PUBCHEM_SHAPE_FINGERPRINT>
10 15 17167864179535985733
10319926 262 16081088130831053623
10554248 39 18271517607183797190
11273773 42 18131630114737235673
11331351 85 17341806721930767490
11410812 94 15984835809442061408
11475781 23 14548730660599342899
1200032 147 18261399966410956138
12236239 1 17703214110984409639
12390115 104 18339364174793061387
12422481 6 17168409546220066172
12975358 362 18113626655568356525
13383665 225 17897179102699992046
13627167 48 17988086595145633201
13726171 33 17753345450484528780
13878862 14 18264752316780893310
14118638 360 18341604979791363983
14150022 121 18192438687285454051
14294032 229 18115598195579777822
14747281 78 17986697925002656662
14840074 17 18343019974247294581
15064981 194 17844523512963511917
15081414 286 18334011688133569924
15131766 46 18342727500128403157
15183329 4 16630811006045310861
15297060 5 18262806293528619900
15513586 35 17100879916695261580
15519825 34 14129346247030757713
15530120 55 16055743446839517748
15685185 35 18270963578072979433
1577012 14 17846498115419095617
18393751 57 17967530160776745995
19304671 126 17846225496834241400
19309040 13 18271245023348519718
19377110 9 13118005491635712846
19958102 18 13470692533626197813
20691028 202 18410857659320566881
21033648 144 18409718561380163463
21033648 29 17604143723896396471
21033650 10 15984834717898057707
22122407 14 18198067972070789209
22311459 1 18194961847111797898
23081809 10 17917703587702806283
23522609 53 17846508002265220697
23559900 14 18412536597262079170
23569914 152 16555962723111461636
249057 25 17845636067890254575
25269216 80 16988277694639972823
2748736 6 18411409644169779584
312425 54 14201381764514686744
3178227 256 18188490151983139978
34797466 226 14404602360167732363
3504750 166 12035711108086252483
3610482 184 17775000211222055983
38570 142 18131361799355456747
397830 11 16370727041001203449
3986486 107 17917446349664962484
4258327 124 18335132129653749535
42767 28 15339126761926265012
437795 70 16917355856557446808
50009960 94 11813968166171908276
5104073 3 18334569161666611994
513532 50 16199858554027367706
5364581 5 16877949386152046525
57527293 21 17458338662977929842
57724786 102 18410855443238800522
59682541 52 17060069133738810252
6608658 132 17632859699001973345
6697151 62 17320108971699185699
6712543 237 14779256502231170161
9962374 69 18265598919212919946

> <PUBCHEM_SHAPE_MULTIPOLES>
661.59
21.8
3.61
2.26
6.27
2.07
-0.73
-21.11
0.45
-6.6
0.51
2.19
-1.41
-2.1

> <PUBCHEM_SHAPE_SELFOVERLAP>
1473.277

> <PUBCHEM_SHAPE_VOLUME>
349.4

> <PUBCHEM_COORDINATE_TYPE>
2
5
10

> <minimizedAffinity>
-5.96762

> <CNNscore>
0.2845109999

> <CNNaffinity>
4.5190877914

> <CNN_VS>
1.2857302427

> <CNNaffinity_variance>
0.0742490739

$$$$
