439246


 23 25  0  0  0  0  0  0  0  0999 V2000
  -18.2781   -0.5393   14.1139 O   0  0  0  0  0  0  0  0  0  0  0  0
  -19.6729   -3.2361   11.3547 O   0  0  0  0  0  0  0  0  0  0  0  0
  -18.1860   -2.1301    9.5247 O   0  0  0  0  0  0  0  0  0  0  0  0
  -15.3943    1.4479   10.9171 O   0  0  0  0  0  0  0  0  0  0  0  0
  -19.5945   -1.1003   14.2364 C   0  0  0  0  0  0  0  0  0  0  0  0
  -19.6492   -2.5053   13.6397 C   0  0  0  0  0  0  0  0  0  0  0  0
  -18.2787   -1.3906   11.8286 C   0  0  0  0  0  0  0  0  0  0  0  0
  -19.2573   -2.4380   12.1864 C   0  0  0  0  0  0  0  0  0  0  0  0
  -17.8273   -0.5137   12.8194 C   0  0  0  0  0  0  0  0  0  0  0  0
  -17.7772   -1.3038   10.5275 C   0  0  0  0  0  0  0  0  0  0  0  0
  -16.8462    0.4311   12.5151 C   0  0  0  0  0  0  0  0  0  0  0  0
  -16.8112   -0.3435   10.2244 C   0  0  0  0  0  0  0  0  0  0  0  0
  -16.3431    0.5186   11.2168 C   0  0  0  0  0  0  0  0  0  0  0  0
  -18.8332   -2.7865    9.6930 H   0  0  0  0  0  0  0  0  0  0  0  0
  -15.0793    2.0273   11.5827 H   0  0  0  0  0  0  0  0  0  0  0  0
  -21.0149   -1.1531   19.7191 O   0  0  0  0  0  0  0  0  0  0  0  0
  -19.9744   -1.1145   15.7020 C   0  0  0  0  0  0  0  0  0  0  0  0
  -19.8775    0.0532   16.4580 C   0  0  0  0  0  0  0  0  0  0  0  0
  -20.4209   -2.2953   16.2944 C   0  0  0  0  0  0  0  0  0  0  0  0
  -20.2272    0.0400   17.8082 C   0  0  0  0  0  0  0  0  0  0  0  0
  -20.7708   -2.3085   17.6446 C   0  0  0  0  0  0  0  0  0  0  0  0
  -20.6740   -1.1407   18.4016 C   0  0  0  0  0  0  0  0  0  0  0  0
  -20.9498   -0.3686   20.2273 H   0  0  0  0  0  0  0  0  0  0  0  0
  1  5  1  0  0  0
  1  9  1  0  0  0
  2  8  2  0  0  0
  3 10  1  0  0  0
  4 13  1  0  0  0
 16 22  1  0  0  0
  5  6  1  0  0  0
  5 17  1  0  0  0
  6  8  1  0  0  0
 17 18  1  0  0  0
 17 19  2  0  0  0
  7  8  1  0  0  0
  7  9  1  0  0  0
  7 10  2  0  0  0
  9 11  2  0  0  0
 10 12  1  0  0  0
 11 13  1  0  0  0
 18 20  2  0  0  0
 19 21  1  0  0  0
 12 13  2  0  0  0
 20 22  1  0  0  0
 21 22  2  0  0  0
  3 14  1  0  0  0
  4 15  1  0  0  0
 16 23  1  0  0  0
M  END
> <PUBCHEM_COMPOUND_CID>
439246

> <PUBCHEM_CONFORMER_RMSD>
0.6

> <PUBCHEM_CONFORMER_DIVERSEORDER>
1
2
4
3

> <PUBCHEM_MMFF94_PARTIAL_CHARGES>
29
1 -0.36
10 0.42
11 0.08
12 0.08
13 -0.15
14 -0.15
15 -0.15
16 -0.15
17 0.08
18 -0.15
19 -0.15
2 -0.57
20 0.08
24 0.15
25 0.15
26 0.15
27 0.15
28 0.15
29 0.15
3 -0.53
30 0.45
31 0.45
32 0.45
4 -0.53
5 -0.53
6 0.42
7 0.06
8 -0.14
9 0.09

> <PUBCHEM_EFFECTIVE_ROTOR_COUNT>
1.6

> <PUBCHEM_PHARMACOPHORE_FEATURES>
8
1 1 acceptor
1 2 acceptor
1 3 donor
1 4 donor
1 5 donor
6 1 6 7 9 10 11 rings
6 8 14 15 18 19 20 rings
6 9 11 12 13 16 17 rings

> <PUBCHEM_HEAVY_ATOM_COUNT>
20

> <PUBCHEM_ATOM_DEF_STEREO_COUNT>
1

> <PUBCHEM_ATOM_UDEF_STEREO_COUNT>
0

> <PUBCHEM_BOND_DEF_STEREO_COUNT>
0

> <PUBCHEM_BOND_UDEF_STEREO_COUNT>
0

> <PUBCHEM_ISOTOPIC_ATOM_COUNT>
0

> <PUBCHEM_COMPONENT_COUNT>
1

> <PUBCHEM_CACTVS_TAUTO_COUNT>
42

> <PUBCHEM_CONFORMER_ID>
0006B3CE00000001

> <PUBCHEM_MMFF94_ENERGY>
57.1464

> <PUBCHEM_FEATURE_SELFOVERLAP>
40.627

> <PUBCHEM_SHAPE_FINGERPRINT>
10411042 1 18194401096497499894
10912923 1 17775289374169302715
11471102 20 18409167739986922888
11796584 16 16515682217453739826
12107183 9 17911812266988603433
12236239 1 17846782927527132233
12553582 1 18340770347454809686
12670546 56 17846780715271218321
13134695 92 18411134740508959964
13140716 1 18051691341700314056
13167823 11 18130787863002487727
13533116 47 18272650164722211747
13544592 145 17966972716770788683
13544653 18 18335425625310108060
13862211 1 18338234865420683466
13955234 65 18340485685327503208
14386348 63 17821730550577017571
14739800 52 16629947941436961896
14790565 3 17904208371068351932
15196674 1 18410573942260151277
15375462 189 18060137647747350688
15848702 151 18412829058120703567
15961568 22 16154277250766570276
16945 1 18410295852155461268
17349148 13 17846780711028842527
17357779 13 18114170922175851245
1813 80 18200606786772715838
18222031 100 18271244928563761478
200 152 18272086102577871905
20028762 73 18130783430206797126
20279233 1 17749392581021324323
20645477 70 18335135392905805654
21065198 48 18131358488072886857
21065201 7 16588021308006322843
21267235 1 18341056233378757550
21641784 216 17969523545145804468
221357 26 18261384530156296565
221490 88 18335983052420961404
22182313 1 18262780892622565436
22224240 67 18200020885253010696
2255824 54 18270403909495216028
22646028 1 17988924470476783875
23175994 123 18113341899341203757
23557571 272 17167855357525519293
23559900 14 17385448725726135674
2748010 2 18265604391306515124
2871803 45 18114181891432511050
312423 11 18269850739150516656
33824 294 18409164437578864202
345986 75 18059008367991254122
34797466 226 16515980223633069207
42630746 31 18341893026251990796
46194498 28 17531249495308006709
465052 167 18342462534140925783
474 4 18126564750224870688
5104073 3 18339643343424822625
5281201 14 18040434378108529413
573450 72 17203611476061435011
602551 16 15051441769301100109
77492 1 17775571965848046505
7970288 3 18266457603160356258
8272917 22 18412266159332382645
9709674 26 18188495786689594355
9981440 41 17334760372181838777

> <PUBCHEM_SHAPE_MULTIPOLES>
382.24
10.82
2.18
0.93
8.91
0.34
-0.06
-3.88
0.02
-3.74
0.09
1.12
-0.04
0.02

> <PUBCHEM_SHAPE_SELFOVERLAP>
848.778

> <PUBCHEM_SHAPE_VOLUME>
203.4

> <PUBCHEM_COORDINATE_TYPE>
2
5
10

> <minimizedAffinity>
-6.40891

> <CNNscore>
0.7621739507

> <CNNaffinity>
5.1663789749

> <CNN_VS>
3.9376795292

> <CNNaffinity_variance>
0.1394827366

$$$$
439246


 23 25  0  0  0  0  0  0  0  0999 V2000
  -18.2959   -0.2199   13.6197 O   0  0  0  0  0  0  0  0  0  0  0  0
  -20.1585    3.2015   12.3328 O   0  0  0  0  0  0  0  0  0  0  0  0
  -18.6244    3.2431   10.2286 O   0  0  0  0  0  0  0  0  0  0  0  0
  -15.5655   -0.3548    9.7453 O   0  0  0  0  0  0  0  0  0  0  0  0
  -18.8568    0.7089   14.5608 C   0  0  0  0  0  0  0  0  0  0  0  0
  -20.0548    1.4416   13.9600 C   0  0  0  0  0  0  0  0  0  0  0  0
  -18.5160    1.5481   11.9545 C   0  0  0  0  0  0  0  0  0  0  0  0
  -19.6112    2.1764   12.7217 C   0  0  0  0  0  0  0  0  0  0  0  0
  -17.9350    0.3716   12.4367 C   0  0  0  0  0  0  0  0  0  0  0  0
  -18.0948    2.0973   10.7409 C   0  0  0  0  0  0  0  0  0  0  0  0
  -16.9529   -0.2756   11.6856 C   0  0  0  0  0  0  0  0  0  0  0  0
  -17.0979    1.4566   10.0042 C   0  0  0  0  0  0  0  0  0  0  0  0
  -16.5317    0.2704   10.4727 C   0  0  0  0  0  0  0  0  0  0  0  0
  -19.2956    3.6992   10.6969 H   0  0  0  0  0  0  0  0  0  0  0  0
  -15.1846   -1.1513   10.0590 H   0  0  0  0  0  0  0  0  0  0  0  0
  -20.3360   -2.1421   19.2261 O   0  0  0  0  0  0  0  0  0  0  0  0
  -19.2524   -0.0533   15.8079 C   0  0  0  0  0  0  0  0  0  0  0  0
  -19.3767    0.6173   17.0241 C   0  0  0  0  0  0  0  0  0  0  0  0
  -19.4921   -1.4253   15.7389 C   0  0  0  0  0  0  0  0  0  0  0  0
  -19.7408   -0.0849   18.1729 C   0  0  0  0  0  0  0  0  0  0  0  0
  -19.8564   -2.1276   16.8877 C   0  0  0  0  0  0  0  0  0  0  0  0
  -19.9809   -1.4573   18.1048 C   0  0  0  0  0  0  0  0  0  0  0  0
  -20.4195   -1.6917   20.0434 H   0  0  0  0  0  0  0  0  0  0  0  0
  1  5  1  0  0  0
  1  9  1  0  0  0
  2  8  2  0  0  0
  3 10  1  0  0  0
  4 13  1  0  0  0
 16 22  1  0  0  0
  5  6  1  0  0  0
  5 17  1  0  0  0
  6  8  1  0  0  0
 17 18  1  0  0  0
 17 19  2  0  0  0
  7  8  1  0  0  0
  7  9  1  0  0  0
  7 10  2  0  0  0
  9 11  2  0  0  0
 10 12  1  0  0  0
 11 13  1  0  0  0
 18 20  2  0  0  0
 19 21  1  0  0  0
 12 13  2  0  0  0
 20 22  1  0  0  0
 21 22  2  0  0  0
  3 14  1  0  0  0
  4 15  1  0  0  0
 16 23  1  0  0  0
M  END
> <PUBCHEM_COMPOUND_CID>
439246

> <PUBCHEM_CONFORMER_RMSD>
0.6

> <PUBCHEM_CONFORMER_DIVERSEORDER>
1
2
4
3

> <PUBCHEM_MMFF94_PARTIAL_CHARGES>
29
1 -0.36
10 0.42
11 0.08
12 0.08
13 -0.15
14 -0.15
15 -0.15
16 -0.15
17 0.08
18 -0.15
19 -0.15
2 -0.57
20 0.08
24 0.15
25 0.15
26 0.15
27 0.15
28 0.15
29 0.15
3 -0.53
30 0.45
31 0.45
32 0.45
4 -0.53
5 -0.53
6 0.42
7 0.06
8 -0.14
9 0.09

> <PUBCHEM_EFFECTIVE_ROTOR_COUNT>
1.6

> <PUBCHEM_PHARMACOPHORE_FEATURES>
8
1 1 acceptor
1 2 acceptor
1 3 donor
1 4 donor
1 5 donor
6 1 6 7 9 10 11 rings
6 8 14 15 18 19 20 rings
6 9 11 12 13 16 17 rings

> <PUBCHEM_HEAVY_ATOM_COUNT>
20

> <PUBCHEM_ATOM_DEF_STEREO_COUNT>
1

> <PUBCHEM_ATOM_UDEF_STEREO_COUNT>
0

> <PUBCHEM_BOND_DEF_STEREO_COUNT>
0

> <PUBCHEM_BOND_UDEF_STEREO_COUNT>
0

> <PUBCHEM_ISOTOPIC_ATOM_COUNT>
0

> <PUBCHEM_COMPONENT_COUNT>
1

> <PUBCHEM_CACTVS_TAUTO_COUNT>
42

> <PUBCHEM_CONFORMER_ID>
0006B3CE00000001

> <PUBCHEM_MMFF94_ENERGY>
57.1464

> <PUBCHEM_FEATURE_SELFOVERLAP>
40.627

> <PUBCHEM_SHAPE_FINGERPRINT>
10411042 1 18194401096497499894
10912923 1 17775289374169302715
11471102 20 18409167739986922888
11796584 16 16515682217453739826
12107183 9 17911812266988603433
12236239 1 17846782927527132233
12553582 1 18340770347454809686
12670546 56 17846780715271218321
13134695 92 18411134740508959964
13140716 1 18051691341700314056
13167823 11 18130787863002487727
13533116 47 18272650164722211747
13544592 145 17966972716770788683
13544653 18 18335425625310108060
13862211 1 18338234865420683466
13955234 65 18340485685327503208
14386348 63 17821730550577017571
14739800 52 16629947941436961896
14790565 3 17904208371068351932
15196674 1 18410573942260151277
15375462 189 18060137647747350688
15848702 151 18412829058120703567
15961568 22 16154277250766570276
16945 1 18410295852155461268
17349148 13 17846780711028842527
17357779 13 18114170922175851245
1813 80 18200606786772715838
18222031 100 18271244928563761478
200 152 18272086102577871905
20028762 73 18130783430206797126
20279233 1 17749392581021324323
20645477 70 18335135392905805654
21065198 48 18131358488072886857
21065201 7 16588021308006322843
21267235 1 18341056233378757550
21641784 216 17969523545145804468
221357 26 18261384530156296565
221490 88 18335983052420961404
22182313 1 18262780892622565436
22224240 67 18200020885253010696
2255824 54 18270403909495216028
22646028 1 17988924470476783875
23175994 123 18113341899341203757
23557571 272 17167855357525519293
23559900 14 17385448725726135674
2748010 2 18265604391306515124
2871803 45 18114181891432511050
312423 11 18269850739150516656
33824 294 18409164437578864202
345986 75 18059008367991254122
34797466 226 16515980223633069207
42630746 31 18341893026251990796
46194498 28 17531249495308006709
465052 167 18342462534140925783
474 4 18126564750224870688
5104073 3 18339643343424822625
5281201 14 18040434378108529413
573450 72 17203611476061435011
602551 16 15051441769301100109
77492 1 17775571965848046505
7970288 3 18266457603160356258
8272917 22 18412266159332382645
9709674 26 18188495786689594355
9981440 41 17334760372181838777

> <PUBCHEM_SHAPE_MULTIPOLES>
382.24
10.82
2.18
0.93
8.91
0.34
-0.06
-3.88
0.02
-3.74
0.09
1.12
-0.04
0.02

> <PUBCHEM_SHAPE_SELFOVERLAP>
848.778

> <PUBCHEM_SHAPE_VOLUME>
203.4

> <PUBCHEM_COORDINATE_TYPE>
2
5
10

> <minimizedAffinity>
-8.95988

> <CNNscore>
0.7373535633

> <CNNaffinity>
5.0165748596

> <CNN_VS>
3.6989893913

> <CNNaffinity_variance>
0.1379843950

$$$$
439246


 23 25  0  0  0  0  0  0  0  0999 V2000
  -19.2067   -1.2706   14.3006 O   0  0  0  0  0  0  0  0  0  0  0  0
  -18.4990    2.7001   13.5499 O   0  0  0  0  0  0  0  0  0  0  0  0
  -17.6371    2.0944   11.1681 O   0  0  0  0  0  0  0  0  0  0  0  0
  -17.8289   -2.4840    9.9286 O   0  0  0  0  0  0  0  0  0  0  0  0
  -18.8736   -0.3697   15.3684 C   0  0  0  0  0  0  0  0  0  0  0  0
  -19.3568    1.0464   15.0615 C   0  0  0  0  0  0  0  0  0  0  0  0
  -18.4346    0.4701   12.7771 C   0  0  0  0  0  0  0  0  0  0  0  0
  -18.7185    1.5169   13.7803 C   0  0  0  0  0  0  0  0  0  0  0  0
  -18.7162   -0.8638   13.0867 C   0  0  0  0  0  0  0  0  0  0  0  0
  -17.9320    0.8116   11.5191 C   0  0  0  0  0  0  0  0  0  0  0  0
  -18.5259   -1.8548   12.1227 C   0  0  0  0  0  0  0  0  0  0  0  0
  -17.7245   -0.1864   10.5662 C   0  0  0  0  0  0  0  0  0  0  0  0
  -18.0253   -1.5157   10.8653 C   0  0  0  0  0  0  0  0  0  0  0  0
  -17.7643    2.7896   11.7833 H   0  0  0  0  0  0  0  0  0  0  0  0
  -18.0306   -3.3770   10.1285 H   0  0  0  0  0  0  0  0  0  0  0  0
  -21.1922   -2.3263   20.1514 O   0  0  0  0  0  0  0  0  0  0  0  0
  -19.4934   -0.8929   16.6470 C   0  0  0  0  0  0  0  0  0  0  0  0
  -20.7819   -0.5006   17.0078 C   0  0  0  0  0  0  0  0  0  0  0  0
  -18.7751   -1.7667   17.4624 C   0  0  0  0  0  0  0  0  0  0  0  0
  -21.3527   -0.9824   18.1858 C   0  0  0  0  0  0  0  0  0  0  0  0
  -19.3459   -2.2487   18.6404 C   0  0  0  0  0  0  0  0  0  0  0  0
  -20.6349   -1.8566   19.0020 C   0  0  0  0  0  0  0  0  0  0  0  0
  -22.0580   -2.0627   20.3941 H   0  0  0  0  0  0  0  0  0  0  0  0
  1  5  1  0  0  0
  1  9  1  0  0  0
  2  8  2  0  0  0
  3 10  1  0  0  0
  4 13  1  0  0  0
 16 22  1  0  0  0
  5  6  1  0  0  0
  5 17  1  0  0  0
  6  8  1  0  0  0
 17 18  1  0  0  0
 17 19  2  0  0  0
  7  8  1  0  0  0
  7  9  1  0  0  0
  7 10  2  0  0  0
  9 11  2  0  0  0
 10 12  1  0  0  0
 11 13  1  0  0  0
 18 20  2  0  0  0
 19 21  1  0  0  0
 12 13  2  0  0  0
 20 22  1  0  0  0
 21 22  2  0  0  0
  3 14  1  0  0  0
  4 15  1  0  0  0
 16 23  1  0  0  0
M  END
> <PUBCHEM_COMPOUND_CID>
439246

> <PUBCHEM_CONFORMER_RMSD>
0.6

> <PUBCHEM_CONFORMER_DIVERSEORDER>
1
2
4
3

> <PUBCHEM_MMFF94_PARTIAL_CHARGES>
29
1 -0.36
10 0.42
11 0.08
12 0.08
13 -0.15
14 -0.15
15 -0.15
16 -0.15
17 0.08
18 -0.15
19 -0.15
2 -0.57
20 0.08
24 0.15
25 0.15
26 0.15
27 0.15
28 0.15
29 0.15
3 -0.53
30 0.45
31 0.45
32 0.45
4 -0.53
5 -0.53
6 0.42
7 0.06
8 -0.14
9 0.09

> <PUBCHEM_EFFECTIVE_ROTOR_COUNT>
1.6

> <PUBCHEM_PHARMACOPHORE_FEATURES>
8
1 1 acceptor
1 2 acceptor
1 3 donor
1 4 donor
1 5 donor
6 1 6 7 9 10 11 rings
6 8 14 15 18 19 20 rings
6 9 11 12 13 16 17 rings

> <PUBCHEM_HEAVY_ATOM_COUNT>
20

> <PUBCHEM_ATOM_DEF_STEREO_COUNT>
1

> <PUBCHEM_ATOM_UDEF_STEREO_COUNT>
0

> <PUBCHEM_BOND_DEF_STEREO_COUNT>
0

> <PUBCHEM_BOND_UDEF_STEREO_COUNT>
0

> <PUBCHEM_ISOTOPIC_ATOM_COUNT>
0

> <PUBCHEM_COMPONENT_COUNT>
1

> <PUBCHEM_CACTVS_TAUTO_COUNT>
42

> <PUBCHEM_CONFORMER_ID>
0006B3CE00000001

> <PUBCHEM_MMFF94_ENERGY>
57.1464

> <PUBCHEM_FEATURE_SELFOVERLAP>
40.627

> <PUBCHEM_SHAPE_FINGERPRINT>
10411042 1 18194401096497499894
10912923 1 17775289374169302715
11471102 20 18409167739986922888
11796584 16 16515682217453739826
12107183 9 17911812266988603433
12236239 1 17846782927527132233
12553582 1 18340770347454809686
12670546 56 17846780715271218321
13134695 92 18411134740508959964
13140716 1 18051691341700314056
13167823 11 18130787863002487727
13533116 47 18272650164722211747
13544592 145 17966972716770788683
13544653 18 18335425625310108060
13862211 1 18338234865420683466
13955234 65 18340485685327503208
14386348 63 17821730550577017571
14739800 52 16629947941436961896
14790565 3 17904208371068351932
15196674 1 18410573942260151277
15375462 189 18060137647747350688
15848702 151 18412829058120703567
15961568 22 16154277250766570276
16945 1 18410295852155461268
17349148 13 17846780711028842527
17357779 13 18114170922175851245
1813 80 18200606786772715838
18222031 100 18271244928563761478
200 152 18272086102577871905
20028762 73 18130783430206797126
20279233 1 17749392581021324323
20645477 70 18335135392905805654
21065198 48 18131358488072886857
21065201 7 16588021308006322843
21267235 1 18341056233378757550
21641784 216 17969523545145804468
221357 26 18261384530156296565
221490 88 18335983052420961404
22182313 1 18262780892622565436
22224240 67 18200020885253010696
2255824 54 18270403909495216028
22646028 1 17988924470476783875
23175994 123 18113341899341203757
23557571 272 17167855357525519293
23559900 14 17385448725726135674
2748010 2 18265604391306515124
2871803 45 18114181891432511050
312423 11 18269850739150516656
33824 294 18409164437578864202
345986 75 18059008367991254122
34797466 226 16515980223633069207
42630746 31 18341893026251990796
46194498 28 17531249495308006709
465052 167 18342462534140925783
474 4 18126564750224870688
5104073 3 18339643343424822625
5281201 14 18040434378108529413
573450 72 17203611476061435011
602551 16 15051441769301100109
77492 1 17775571965848046505
7970288 3 18266457603160356258
8272917 22 18412266159332382645
9709674 26 18188495786689594355
9981440 41 17334760372181838777

> <PUBCHEM_SHAPE_MULTIPOLES>
382.24
10.82
2.18
0.93
8.91
0.34
-0.06
-3.88
0.02
-3.74
0.09
1.12
-0.04
0.02

> <PUBCHEM_SHAPE_SELFOVERLAP>
848.778

> <PUBCHEM_SHAPE_VOLUME>
203.4

> <PUBCHEM_COORDINATE_TYPE>
2
5
10

> <minimizedAffinity>
-8.37128

> <CNNscore>
0.6977380514

> <CNNaffinity>
4.9658966064

> <CNN_VS>
3.4648950100

> <CNNaffinity_variance>
0.0462120399

$$$$
439246


 23 25  0  0  0  0  0  0  0  0999 V2000
  -22.6038   -4.7766   10.2759 O   0  0  0  0  0  0  0  0  0  0  0  0
  -18.8415   -5.1467   11.8692 O   0  0  0  0  0  0  0  0  0  0  0  0
  -19.2244   -2.9855   13.2711 O   0  0  0  0  0  0  0  0  0  0  0  0
  -23.4894   -0.9329   12.9078 O   0  0  0  0  0  0  0  0  0  0  0  0
  -21.5484   -5.4012    9.5284 C   0  0  0  0  0  0  0  0  0  0  0  0
  -20.5443   -6.0783   10.4592 C   0  0  0  0  0  0  0  0  0  0  0  0
  -20.8641   -3.9335   11.7624 C   0  0  0  0  0  0  0  0  0  0  0  0
  -19.9659   -5.0467   11.3926 C   0  0  0  0  0  0  0  0  0  0  0  0
  -22.1421   -3.8742   11.1990 C   0  0  0  0  0  0  0  0  0  0  0  0
  -20.4591   -2.9760   12.6957 C   0  0  0  0  0  0  0  0  0  0  0  0
  -23.0296   -2.8729   11.5960 C   0  0  0  0  0  0  0  0  0  0  0  0
  -21.3438   -1.9652   13.0735 C   0  0  0  0  0  0  0  0  0  0  0  0
  -22.6276   -1.9165   12.5289 C   0  0  0  0  0  0  0  0  0  0  0  0
  -18.6052   -3.6499   13.0405 H   0  0  0  0  0  0  0  0  0  0  0  0
  -24.3517   -0.8993   12.5427 H   0  0  0  0  0  0  0  0  0  0  0  0
  -23.8561   -9.1365    5.9502 O   0  0  0  0  0  0  0  0  0  0  0  0
  -22.1654   -6.3996    8.5718 C   0  0  0  0  0  0  0  0  0  0  0  0
  -23.0648   -7.3541    9.0455 C   0  0  0  0  0  0  0  0  0  0  0  0
  -21.8335   -6.3636    7.2179 C   0  0  0  0  0  0  0  0  0  0  0  0
  -23.6329   -8.2739    8.1642 C   0  0  0  0  0  0  0  0  0  0  0  0
  -22.4018   -7.2834    6.3365 C   0  0  0  0  0  0  0  0  0  0  0  0
  -23.3017   -8.2386    6.8097 C   0  0  0  0  0  0  0  0  0  0  0  0
  -24.4605   -9.7779    6.2684 H   0  0  0  0  0  0  0  0  0  0  0  0
  1  5  1  0  0  0
  1  9  1  0  0  0
  2  8  2  0  0  0
  3 10  1  0  0  0
  4 13  1  0  0  0
 16 22  1  0  0  0
  5  6  1  0  0  0
  5 17  1  0  0  0
  6  8  1  0  0  0
 17 18  1  0  0  0
 17 19  2  0  0  0
  7  8  1  0  0  0
  7  9  1  0  0  0
  7 10  2  0  0  0
  9 11  2  0  0  0
 10 12  1  0  0  0
 11 13  1  0  0  0
 18 20  2  0  0  0
 19 21  1  0  0  0
 12 13  2  0  0  0
 20 22  1  0  0  0
 21 22  2  0  0  0
  3 14  1  0  0  0
  4 15  1  0  0  0
 16 23  1  0  0  0
M  END
> <PUBCHEM_COMPOUND_CID>
439246

> <PUBCHEM_CONFORMER_RMSD>
0.6

> <PUBCHEM_CONFORMER_DIVERSEORDER>
1
2
4
3

> <PUBCHEM_MMFF94_PARTIAL_CHARGES>
29
1 -0.36
10 0.42
11 0.08
12 0.08
13 -0.15
14 -0.15
15 -0.15
16 -0.15
17 0.08
18 -0.15
19 -0.15
2 -0.57
20 0.08
24 0.15
25 0.15
26 0.15
27 0.15
28 0.15
29 0.15
3 -0.53
30 0.45
31 0.45
32 0.45
4 -0.53
5 -0.53
6 0.42
7 0.06
8 -0.14
9 0.09

> <PUBCHEM_EFFECTIVE_ROTOR_COUNT>
1.6

> <PUBCHEM_PHARMACOPHORE_FEATURES>
8
1 1 acceptor
1 2 acceptor
1 3 donor
1 4 donor
1 5 donor
6 1 6 7 9 10 11 rings
6 8 14 15 18 19 20 rings
6 9 11 12 13 16 17 rings

> <PUBCHEM_HEAVY_ATOM_COUNT>
20

> <PUBCHEM_ATOM_DEF_STEREO_COUNT>
1

> <PUBCHEM_ATOM_UDEF_STEREO_COUNT>
0

> <PUBCHEM_BOND_DEF_STEREO_COUNT>
0

> <PUBCHEM_BOND_UDEF_STEREO_COUNT>
0

> <PUBCHEM_ISOTOPIC_ATOM_COUNT>
0

> <PUBCHEM_COMPONENT_COUNT>
1

> <PUBCHEM_CACTVS_TAUTO_COUNT>
42

> <PUBCHEM_CONFORMER_ID>
0006B3CE00000001

> <PUBCHEM_MMFF94_ENERGY>
57.1464

> <PUBCHEM_FEATURE_SELFOVERLAP>
40.627

> <PUBCHEM_SHAPE_FINGERPRINT>
10411042 1 18194401096497499894
10912923 1 17775289374169302715
11471102 20 18409167739986922888
11796584 16 16515682217453739826
12107183 9 17911812266988603433
12236239 1 17846782927527132233
12553582 1 18340770347454809686
12670546 56 17846780715271218321
13134695 92 18411134740508959964
13140716 1 18051691341700314056
13167823 11 18130787863002487727
13533116 47 18272650164722211747
13544592 145 17966972716770788683
13544653 18 18335425625310108060
13862211 1 18338234865420683466
13955234 65 18340485685327503208
14386348 63 17821730550577017571
14739800 52 16629947941436961896
14790565 3 17904208371068351932
15196674 1 18410573942260151277
15375462 189 18060137647747350688
15848702 151 18412829058120703567
15961568 22 16154277250766570276
16945 1 18410295852155461268
17349148 13 17846780711028842527
17357779 13 18114170922175851245
1813 80 18200606786772715838
18222031 100 18271244928563761478
200 152 18272086102577871905
20028762 73 18130783430206797126
20279233 1 17749392581021324323
20645477 70 18335135392905805654
21065198 48 18131358488072886857
21065201 7 16588021308006322843
21267235 1 18341056233378757550
21641784 216 17969523545145804468
221357 26 18261384530156296565
221490 88 18335983052420961404
22182313 1 18262780892622565436
22224240 67 18200020885253010696
2255824 54 18270403909495216028
22646028 1 17988924470476783875
23175994 123 18113341899341203757
23557571 272 17167855357525519293
23559900 14 17385448725726135674
2748010 2 18265604391306515124
2871803 45 18114181891432511050
312423 11 18269850739150516656
33824 294 18409164437578864202
345986 75 18059008367991254122
34797466 226 16515980223633069207
42630746 31 18341893026251990796
46194498 28 17531249495308006709
465052 167 18342462534140925783
474 4 18126564750224870688
5104073 3 18339643343424822625
5281201 14 18040434378108529413
573450 72 17203611476061435011
602551 16 15051441769301100109
77492 1 17775571965848046505
7970288 3 18266457603160356258
8272917 22 18412266159332382645
9709674 26 18188495786689594355
9981440 41 17334760372181838777

> <PUBCHEM_SHAPE_MULTIPOLES>
382.24
10.82
2.18
0.93
8.91
0.34
-0.06
-3.88
0.02
-3.74
0.09
1.12
-0.04
0.02

> <PUBCHEM_SHAPE_SELFOVERLAP>
848.778

> <PUBCHEM_SHAPE_VOLUME>
203.4

> <PUBCHEM_COORDINATE_TYPE>
2
5
10

> <minimizedAffinity>
-5.61512

> <CNNscore>
0.6298513412

> <CNNaffinity>
4.2788419724

> <CNN_VS>
2.6950342655

> <CNNaffinity_variance>
0.0589227676

$$$$
439246


 23 25  0  0  0  0  0  0  0  0999 V2000
  -20.1483   -2.2966   14.1488 O   0  0  0  0  0  0  0  0  0  0  0  0
  -17.5197    0.4513   12.6093 O   0  0  0  0  0  0  0  0  0  0  0  0
  -17.4920   -0.8436   10.3498 O   0  0  0  0  0  0  0  0  0  0  0  0
  -20.3217   -4.6418   10.0312 O   0  0  0  0  0  0  0  0  0  0  0  0
  -19.2245   -1.6054   15.0041 C   0  0  0  0  0  0  0  0  0  0  0  0
  -18.9006   -0.2180   14.4533 C   0  0  0  0  0  0  0  0  0  0  0  0
  -18.7928   -1.5097   12.2806 C   0  0  0  0  0  0  0  0  0  0  0  0
  -18.3091   -0.3618   13.0751 C   0  0  0  0  0  0  0  0  0  0  0  0
  -19.7035   -2.4005   12.8562 C   0  0  0  0  0  0  0  0  0  0  0  0
  -18.3799   -1.6797   10.9567 C   0  0  0  0  0  0  0  0  0  0  0  0
  -20.2283   -3.4451   12.0940 C   0  0  0  0  0  0  0  0  0  0  0  0
  -18.8926   -2.7382   10.2059 C   0  0  0  0  0  0  0  0  0  0  0  0
  -19.8184   -3.6159   10.7713 C   0  0  0  0  0  0  0  0  0  0  0  0
  -17.1279   -0.1224   10.8244 H   0  0  0  0  0  0  0  0  0  0  0  0
  -20.9434   -5.2318   10.4099 H   0  0  0  0  0  0  0  0  0  0  0  0
  -21.4893   -1.2689   20.1846 O   0  0  0  0  0  0  0  0  0  0  0  0
  -19.8298   -1.5154   16.3891 C   0  0  0  0  0  0  0  0  0  0  0  0
  -20.3191   -2.6633   17.0113 C   0  0  0  0  0  0  0  0  0  0  0  0
  -19.8972   -0.2846   17.0410 C   0  0  0  0  0  0  0  0  0  0  0  0
  -20.8769   -2.5802   18.2871 C   0  0  0  0  0  0  0  0  0  0  0  0
  -20.4549   -0.2015   18.3168 C   0  0  0  0  0  0  0  0  0  0  0  0
  -20.9447   -1.3494   18.9400 C   0  0  0  0  0  0  0  0  0  0  0  0
  -21.8182   -2.0401   20.6029 H   0  0  0  0  0  0  0  0  0  0  0  0
  1  5  1  0  0  0
  1  9  1  0  0  0
  2  8  2  0  0  0
  3 10  1  0  0  0
  4 13  1  0  0  0
 16 22  1  0  0  0
  5  6  1  0  0  0
  5 17  1  0  0  0
  6  8  1  0  0  0
 17 18  1  0  0  0
 17 19  2  0  0  0
  7  8  1  0  0  0
  7  9  1  0  0  0
  7 10  2  0  0  0
  9 11  2  0  0  0
 10 12  1  0  0  0
 11 13  1  0  0  0
 18 20  2  0  0  0
 19 21  1  0  0  0
 12 13  2  0  0  0
 20 22  1  0  0  0
 21 22  2  0  0  0
  3 14  1  0  0  0
  4 15  1  0  0  0
 16 23  1  0  0  0
M  END
> <PUBCHEM_COMPOUND_CID>
439246

> <PUBCHEM_CONFORMER_RMSD>
0.6

> <PUBCHEM_CONFORMER_DIVERSEORDER>
1
2
4
3

> <PUBCHEM_MMFF94_PARTIAL_CHARGES>
29
1 -0.36
10 0.42
11 0.08
12 0.08
13 -0.15
14 -0.15
15 -0.15
16 -0.15
17 0.08
18 -0.15
19 -0.15
2 -0.57
20 0.08
24 0.15
25 0.15
26 0.15
27 0.15
28 0.15
29 0.15
3 -0.53
30 0.45
31 0.45
32 0.45
4 -0.53
5 -0.53
6 0.42
7 0.06
8 -0.14
9 0.09

> <PUBCHEM_EFFECTIVE_ROTOR_COUNT>
1.6

> <PUBCHEM_PHARMACOPHORE_FEATURES>
8
1 1 acceptor
1 2 acceptor
1 3 donor
1 4 donor
1 5 donor
6 1 6 7 9 10 11 rings
6 8 14 15 18 19 20 rings
6 9 11 12 13 16 17 rings

> <PUBCHEM_HEAVY_ATOM_COUNT>
20

> <PUBCHEM_ATOM_DEF_STEREO_COUNT>
1

> <PUBCHEM_ATOM_UDEF_STEREO_COUNT>
0

> <PUBCHEM_BOND_DEF_STEREO_COUNT>
0

> <PUBCHEM_BOND_UDEF_STEREO_COUNT>
0

> <PUBCHEM_ISOTOPIC_ATOM_COUNT>
0

> <PUBCHEM_COMPONENT_COUNT>
1

> <PUBCHEM_CACTVS_TAUTO_COUNT>
42

> <PUBCHEM_CONFORMER_ID>
0006B3CE00000001

> <PUBCHEM_MMFF94_ENERGY>
57.1464

> <PUBCHEM_FEATURE_SELFOVERLAP>
40.627

> <PUBCHEM_SHAPE_FINGERPRINT>
10411042 1 18194401096497499894
10912923 1 17775289374169302715
11471102 20 18409167739986922888
11796584 16 16515682217453739826
12107183 9 17911812266988603433
12236239 1 17846782927527132233
12553582 1 18340770347454809686
12670546 56 17846780715271218321
13134695 92 18411134740508959964
13140716 1 18051691341700314056
13167823 11 18130787863002487727
13533116 47 18272650164722211747
13544592 145 17966972716770788683
13544653 18 18335425625310108060
13862211 1 18338234865420683466
13955234 65 18340485685327503208
14386348 63 17821730550577017571
14739800 52 16629947941436961896
14790565 3 17904208371068351932
15196674 1 18410573942260151277
15375462 189 18060137647747350688
15848702 151 18412829058120703567
15961568 22 16154277250766570276
16945 1 18410295852155461268
17349148 13 17846780711028842527
17357779 13 18114170922175851245
1813 80 18200606786772715838
18222031 100 18271244928563761478
200 152 18272086102577871905
20028762 73 18130783430206797126
20279233 1 17749392581021324323
20645477 70 18335135392905805654
21065198 48 18131358488072886857
21065201 7 16588021308006322843
21267235 1 18341056233378757550
21641784 216 17969523545145804468
221357 26 18261384530156296565
221490 88 18335983052420961404
22182313 1 18262780892622565436
22224240 67 18200020885253010696
2255824 54 18270403909495216028
22646028 1 17988924470476783875
23175994 123 18113341899341203757
23557571 272 17167855357525519293
23559900 14 17385448725726135674
2748010 2 18265604391306515124
2871803 45 18114181891432511050
312423 11 18269850739150516656
33824 294 18409164437578864202
345986 75 18059008367991254122
34797466 226 16515980223633069207
42630746 31 18341893026251990796
46194498 28 17531249495308006709
465052 167 18342462534140925783
474 4 18126564750224870688
5104073 3 18339643343424822625
5281201 14 18040434378108529413
573450 72 17203611476061435011
602551 16 15051441769301100109
77492 1 17775571965848046505
7970288 3 18266457603160356258
8272917 22 18412266159332382645
9709674 26 18188495786689594355
9981440 41 17334760372181838777

> <PUBCHEM_SHAPE_MULTIPOLES>
382.24
10.82
2.18
0.93
8.91
0.34
-0.06
-3.88
0.02
-3.74
0.09
1.12
-0.04
0.02

> <PUBCHEM_SHAPE_SELFOVERLAP>
848.778

> <PUBCHEM_SHAPE_VOLUME>
203.4

> <PUBCHEM_COORDINATE_TYPE>
2
5
10

> <minimizedAffinity>
-5.98062

> <CNNscore>
0.6054976583

> <CNNaffinity>
4.5390729904

> <CNN_VS>
2.7483980656

> <CNNaffinity_variance>
0.1377331316

$$$$
439246


 23 25  0  0  0  0  0  0  0  0999 V2000
  -22.1582   -6.8092    9.3572 O   0  0  0  0  0  0  0  0  0  0  0  0
  -23.5984   -2.9894    9.7638 O   0  0  0  0  0  0  0  0  0  0  0  0
  -21.7629   -2.4885   11.5423 O   0  0  0  0  0  0  0  0  0  0  0  0
  -18.6623   -5.9671   12.4482 O   0  0  0  0  0  0  0  0  0  0  0  0
  -23.5475   -6.5210    9.1344 C   0  0  0  0  0  0  0  0  0  0  0  0
  -23.7358   -5.0946    8.6216 C   0  0  0  0  0  0  0  0  0  0  0  0
  -22.0155   -4.6161   10.4140 C   0  0  0  0  0  0  0  0  0  0  0  0
  -23.1712   -4.1302    9.6322 C   0  0  0  0  0  0  0  0  0  0  0  0
  -21.5603   -5.9228   10.2153 C   0  0  0  0  0  0  0  0  0  0  0  0
  -21.3581   -3.7681   11.3088 C   0  0  0  0  0  0  0  0  0  0  0  0
  -20.4235   -6.3714   10.8891 C   0  0  0  0  0  0  0  0  0  0  0  0
  -20.2340   -4.2291   11.9950 C   0  0  0  0  0  0  0  0  0  0  0  0
  -19.7647   -5.5258   11.7822 C   0  0  0  0  0  0  0  0  0  0  0  0
  -22.5139   -2.1463   11.0986 H   0  0  0  0  0  0  0  0  0  0  0  0
  -18.3463   -6.8377   12.3060 H   0  0  0  0  0  0  0  0  0  0  0  0
  -25.5915  -10.3031    5.4467 O   0  0  0  0  0  0  0  0  0  0  0  0
  -24.0940   -7.5321    8.1486 C   0  0  0  0  0  0  0  0  0  0  0  0
  -23.2664   -8.5384    7.6520 C   0  0  0  0  0  0  0  0  0  0  0  0
  -25.4246   -7.4560    7.7386 C   0  0  0  0  0  0  0  0  0  0  0  0
  -23.7699   -9.4697    6.7438 C   0  0  0  0  0  0  0  0  0  0  0  0
  -25.9282   -8.3873    6.8304 C   0  0  0  0  0  0  0  0  0  0  0  0
  -25.1008   -9.3943    6.3330 C   0  0  0  0  0  0  0  0  0  0  0  0
  -25.0355  -10.9793    5.1128 H   0  0  0  0  0  0  0  0  0  0  0  0
  1  5  1  0  0  0
  1  9  1  0  0  0
  2  8  2  0  0  0
  3 10  1  0  0  0
  4 13  1  0  0  0
 16 22  1  0  0  0
  5  6  1  0  0  0
  5 17  1  0  0  0
  6  8  1  0  0  0
 17 18  1  0  0  0
 17 19  2  0  0  0
  7  8  1  0  0  0
  7  9  1  0  0  0
  7 10  2  0  0  0
  9 11  2  0  0  0
 10 12  1  0  0  0
 11 13  1  0  0  0
 18 20  2  0  0  0
 19 21  1  0  0  0
 12 13  2  0  0  0
 20 22  1  0  0  0
 21 22  2  0  0  0
  3 14  1  0  0  0
  4 15  1  0  0  0
 16 23  1  0  0  0
M  END
> <PUBCHEM_COMPOUND_CID>
439246

> <PUBCHEM_CONFORMER_RMSD>
0.6

> <PUBCHEM_CONFORMER_DIVERSEORDER>
1
2
4
3

> <PUBCHEM_MMFF94_PARTIAL_CHARGES>
29
1 -0.36
10 0.42
11 0.08
12 0.08
13 -0.15
14 -0.15
15 -0.15
16 -0.15
17 0.08
18 -0.15
19 -0.15
2 -0.57
20 0.08
24 0.15
25 0.15
26 0.15
27 0.15
28 0.15
29 0.15
3 -0.53
30 0.45
31 0.45
32 0.45
4 -0.53
5 -0.53
6 0.42
7 0.06
8 -0.14
9 0.09

> <PUBCHEM_EFFECTIVE_ROTOR_COUNT>
1.6

> <PUBCHEM_PHARMACOPHORE_FEATURES>
8
1 1 acceptor
1 2 acceptor
1 3 donor
1 4 donor
1 5 donor
6 1 6 7 9 10 11 rings
6 8 14 15 18 19 20 rings
6 9 11 12 13 16 17 rings

> <PUBCHEM_HEAVY_ATOM_COUNT>
20

> <PUBCHEM_ATOM_DEF_STEREO_COUNT>
1

> <PUBCHEM_ATOM_UDEF_STEREO_COUNT>
0

> <PUBCHEM_BOND_DEF_STEREO_COUNT>
0

> <PUBCHEM_BOND_UDEF_STEREO_COUNT>
0

> <PUBCHEM_ISOTOPIC_ATOM_COUNT>
0

> <PUBCHEM_COMPONENT_COUNT>
1

> <PUBCHEM_CACTVS_TAUTO_COUNT>
42

> <PUBCHEM_CONFORMER_ID>
0006B3CE00000001

> <PUBCHEM_MMFF94_ENERGY>
57.1464

> <PUBCHEM_FEATURE_SELFOVERLAP>
40.627

> <PUBCHEM_SHAPE_FINGERPRINT>
10411042 1 18194401096497499894
10912923 1 17775289374169302715
11471102 20 18409167739986922888
11796584 16 16515682217453739826
12107183 9 17911812266988603433
12236239 1 17846782927527132233
12553582 1 18340770347454809686
12670546 56 17846780715271218321
13134695 92 18411134740508959964
13140716 1 18051691341700314056
13167823 11 18130787863002487727
13533116 47 18272650164722211747
13544592 145 17966972716770788683
13544653 18 18335425625310108060
13862211 1 18338234865420683466
13955234 65 18340485685327503208
14386348 63 17821730550577017571
14739800 52 16629947941436961896
14790565 3 17904208371068351932
15196674 1 18410573942260151277
15375462 189 18060137647747350688
15848702 151 18412829058120703567
15961568 22 16154277250766570276
16945 1 18410295852155461268
17349148 13 17846780711028842527
17357779 13 18114170922175851245
1813 80 18200606786772715838
18222031 100 18271244928563761478
200 152 18272086102577871905
20028762 73 18130783430206797126
20279233 1 17749392581021324323
20645477 70 18335135392905805654
21065198 48 18131358488072886857
21065201 7 16588021308006322843
21267235 1 18341056233378757550
21641784 216 17969523545145804468
221357 26 18261384530156296565
221490 88 18335983052420961404
22182313 1 18262780892622565436
22224240 67 18200020885253010696
2255824 54 18270403909495216028
22646028 1 17988924470476783875
23175994 123 18113341899341203757
23557571 272 17167855357525519293
23559900 14 17385448725726135674
2748010 2 18265604391306515124
2871803 45 18114181891432511050
312423 11 18269850739150516656
33824 294 18409164437578864202
345986 75 18059008367991254122
34797466 226 16515980223633069207
42630746 31 18341893026251990796
46194498 28 17531249495308006709
465052 167 18342462534140925783
474 4 18126564750224870688
5104073 3 18339643343424822625
5281201 14 18040434378108529413
573450 72 17203611476061435011
602551 16 15051441769301100109
77492 1 17775571965848046505
7970288 3 18266457603160356258
8272917 22 18412266159332382645
9709674 26 18188495786689594355
9981440 41 17334760372181838777

> <PUBCHEM_SHAPE_MULTIPOLES>
382.24
10.82
2.18
0.93
8.91
0.34
-0.06
-3.88
0.02
-3.74
0.09
1.12
-0.04
0.02

> <PUBCHEM_SHAPE_SELFOVERLAP>
848.778

> <PUBCHEM_SHAPE_VOLUME>
203.4

> <PUBCHEM_COORDINATE_TYPE>
2
5
10

> <minimizedAffinity>
-5.33866

> <CNNscore>
0.5181630254

> <CNNaffinity>
4.1544365883

> <CNN_VS>
2.1526753902

> <CNNaffinity_variance>
0.0606943965

$$$$
439246


 23 25  0  0  0  0  0  0  0  0999 V2000
  -23.6103   -3.0382    9.9543 O   0  0  0  0  0  0  0  0  0  0  0  0
  -24.3419   -6.7275    8.3158 O   0  0  0  0  0  0  0  0  0  0  0  0
  -22.3125   -7.7077    9.6212 O   0  0  0  0  0  0  0  0  0  0  0  0
  -20.0039   -4.7405   12.5195 O   0  0  0  0  0  0  0  0  0  0  0  0
  -24.2146   -3.1584    8.6569 C   0  0  0  0  0  0  0  0  0  0  0  0
  -25.0346   -4.4427    8.5511 C   0  0  0  0  0  0  0  0  0  0  0  0
  -23.0152   -5.3936    9.7424 C   0  0  0  0  0  0  0  0  0  0  0  0
  -24.1338   -5.6235    8.8049 C   0  0  0  0  0  0  0  0  0  0  0  0
  -22.8305   -4.1172   10.2818 C   0  0  0  0  0  0  0  0  0  0  0  0
  -22.1785   -6.4470   10.1195 C   0  0  0  0  0  0  0  0  0  0  0  0
  -21.8265   -3.9021   11.2270 C   0  0  0  0  0  0  0  0  0  0  0  0
  -21.1633   -6.2210   11.0497 C   0  0  0  0  0  0  0  0  0  0  0  0
  -20.9907   -4.9530   11.6060 C   0  0  0  0  0  0  0  0  0  0  0  0
  -22.9837   -7.8950    8.9947 H   0  0  0  0  0  0  0  0  0  0  0  0
  -19.8871   -3.8894   12.8937 H   0  0  0  0  0  0  0  0  0  0  0  0
  -27.4449    1.4062    7.7562 O   0  0  0  0  0  0  0  0  0  0  0  0
  -25.0780   -1.9381    8.4161 C   0  0  0  0  0  0  0  0  0  0  0  0
  -25.7780   -1.3601    9.4746 C   0  0  0  0  0  0  0  0  0  0  0  0
  -25.1723   -1.3933    7.1359 C   0  0  0  0  0  0  0  0  0  0  0  0
  -26.5735   -0.2361    9.2526 C   0  0  0  0  0  0  0  0  0  0  0  0
  -25.9678   -0.2691    6.9139 C   0  0  0  0  0  0  0  0  0  0  0  0
  -26.6683    0.3096    7.9724 C   0  0  0  0  0  0  0  0  0  0  0  0
  -27.9153    1.7946    8.4674 H   0  0  0  0  0  0  0  0  0  0  0  0
  1  5  1  0  0  0
  1  9  1  0  0  0
  2  8  2  0  0  0
  3 10  1  0  0  0
  4 13  1  0  0  0
 16 22  1  0  0  0
  5  6  1  0  0  0
  5 17  1  0  0  0
  6  8  1  0  0  0
 17 18  1  0  0  0
 17 19  2  0  0  0
  7  8  1  0  0  0
  7  9  1  0  0  0
  7 10  2  0  0  0
  9 11  2  0  0  0
 10 12  1  0  0  0
 11 13  1  0  0  0
 18 20  2  0  0  0
 19 21  1  0  0  0
 12 13  2  0  0  0
 20 22  1  0  0  0
 21 22  2  0  0  0
  3 14  1  0  0  0
  4 15  1  0  0  0
 16 23  1  0  0  0
M  END
> <PUBCHEM_COMPOUND_CID>
439246

> <PUBCHEM_CONFORMER_RMSD>
0.6

> <PUBCHEM_CONFORMER_DIVERSEORDER>
1
2
4
3

> <PUBCHEM_MMFF94_PARTIAL_CHARGES>
29
1 -0.36
10 0.42
11 0.08
12 0.08
13 -0.15
14 -0.15
15 -0.15
16 -0.15
17 0.08
18 -0.15
19 -0.15
2 -0.57
20 0.08
24 0.15
25 0.15
26 0.15
27 0.15
28 0.15
29 0.15
3 -0.53
30 0.45
31 0.45
32 0.45
4 -0.53
5 -0.53
6 0.42
7 0.06
8 -0.14
9 0.09

> <PUBCHEM_EFFECTIVE_ROTOR_COUNT>
1.6

> <PUBCHEM_PHARMACOPHORE_FEATURES>
8
1 1 acceptor
1 2 acceptor
1 3 donor
1 4 donor
1 5 donor
6 1 6 7 9 10 11 rings
6 8 14 15 18 19 20 rings
6 9 11 12 13 16 17 rings

> <PUBCHEM_HEAVY_ATOM_COUNT>
20

> <PUBCHEM_ATOM_DEF_STEREO_COUNT>
1

> <PUBCHEM_ATOM_UDEF_STEREO_COUNT>
0

> <PUBCHEM_BOND_DEF_STEREO_COUNT>
0

> <PUBCHEM_BOND_UDEF_STEREO_COUNT>
0

> <PUBCHEM_ISOTOPIC_ATOM_COUNT>
0

> <PUBCHEM_COMPONENT_COUNT>
1

> <PUBCHEM_CACTVS_TAUTO_COUNT>
42

> <PUBCHEM_CONFORMER_ID>
0006B3CE00000001

> <PUBCHEM_MMFF94_ENERGY>
57.1464

> <PUBCHEM_FEATURE_SELFOVERLAP>
40.627

> <PUBCHEM_SHAPE_FINGERPRINT>
10411042 1 18194401096497499894
10912923 1 17775289374169302715
11471102 20 18409167739986922888
11796584 16 16515682217453739826
12107183 9 17911812266988603433
12236239 1 17846782927527132233
12553582 1 18340770347454809686
12670546 56 17846780715271218321
13134695 92 18411134740508959964
13140716 1 18051691341700314056
13167823 11 18130787863002487727
13533116 47 18272650164722211747
13544592 145 17966972716770788683
13544653 18 18335425625310108060
13862211 1 18338234865420683466
13955234 65 18340485685327503208
14386348 63 17821730550577017571
14739800 52 16629947941436961896
14790565 3 17904208371068351932
15196674 1 18410573942260151277
15375462 189 18060137647747350688
15848702 151 18412829058120703567
15961568 22 16154277250766570276
16945 1 18410295852155461268
17349148 13 17846780711028842527
17357779 13 18114170922175851245
1813 80 18200606786772715838
18222031 100 18271244928563761478
200 152 18272086102577871905
20028762 73 18130783430206797126
20279233 1 17749392581021324323
20645477 70 18335135392905805654
21065198 48 18131358488072886857
21065201 7 16588021308006322843
21267235 1 18341056233378757550
21641784 216 17969523545145804468
221357 26 18261384530156296565
221490 88 18335983052420961404
22182313 1 18262780892622565436
22224240 67 18200020885253010696
2255824 54 18270403909495216028
22646028 1 17988924470476783875
23175994 123 18113341899341203757
23557571 272 17167855357525519293
23559900 14 17385448725726135674
2748010 2 18265604391306515124
2871803 45 18114181891432511050
312423 11 18269850739150516656
33824 294 18409164437578864202
345986 75 18059008367991254122
34797466 226 16515980223633069207
42630746 31 18341893026251990796
46194498 28 17531249495308006709
465052 167 18342462534140925783
474 4 18126564750224870688
5104073 3 18339643343424822625
5281201 14 18040434378108529413
573450 72 17203611476061435011
602551 16 15051441769301100109
77492 1 17775571965848046505
7970288 3 18266457603160356258
8272917 22 18412266159332382645
9709674 26 18188495786689594355
9981440 41 17334760372181838777

> <PUBCHEM_SHAPE_MULTIPOLES>
382.24
10.82
2.18
0.93
8.91
0.34
-0.06
-3.88
0.02
-3.74
0.09
1.12
-0.04
0.02

> <PUBCHEM_SHAPE_SELFOVERLAP>
848.778

> <PUBCHEM_SHAPE_VOLUME>
203.4

> <PUBCHEM_COORDINATE_TYPE>
2
5
10

> <minimizedAffinity>
-4.28195

> <CNNscore>
0.4593664110

> <CNNaffinity>
3.7941048145

> <CNN_VS>
1.7428842783

> <CNNaffinity_variance>
0.0310558043

$$$$
439246


 23 25  0  0  0  0  0  0  0  0999 V2000
  -20.1904   -1.9508   11.9894 O   0  0  0  0  0  0  0  0  0  0  0  0
  -16.9382   -3.1312    9.7847 O   0  0  0  0  0  0  0  0  0  0  0  0
  -15.8252   -0.8114   10.1877 O   0  0  0  0  0  0  0  0  0  0  0  0
  -18.1942    2.2433   12.9430 O   0  0  0  0  0  0  0  0  0  0  0  0
  -20.3320   -2.9060   10.9263 C   0  0  0  0  0  0  0  0  0  0  0  0
  -19.0534   -3.7229   10.7497 C   0  0  0  0  0  0  0  0  0  0  0  0
  -17.9945   -1.4457   11.0566 C   0  0  0  0  0  0  0  0  0  0  0  0
  -17.9110   -2.7887   10.4464 C   0  0  0  0  0  0  0  0  0  0  0  0
  -19.1213   -1.1108   11.8132 C   0  0  0  0  0  0  0  0  0  0  0  0
  -16.9428   -0.5368   10.9166 C   0  0  0  0  0  0  0  0  0  0  0  0
  -19.1809    0.1248   12.4594 C   0  0  0  0  0  0  0  0  0  0  0  0
  -17.0171    0.7051   11.5484 C   0  0  0  0  0  0  0  0  0  0  0  0
  -18.1311    1.0334   12.3220 C   0  0  0  0  0  0  0  0  0  0  0  0
  -15.7420   -1.6358    9.7502 H   0  0  0  0  0  0  0  0  0  0  0  0
  -18.9418    2.4647   13.4627 H   0  0  0  0  0  0  0  0  0  0  0  0
  -24.7478   -6.2523   12.1026 O   0  0  0  0  0  0  0  0  0  0  0  0
  -21.5124   -3.8007   11.2406 C   0  0  0  0  0  0  0  0  0  0  0  0
  -22.8070   -3.2838   11.2053 C   0  0  0  0  0  0  0  0  0  0  0  0
  -21.3037   -5.1407   11.5650 C   0  0  0  0  0  0  0  0  0  0  0  0
  -23.8943   -4.1080   11.4951 C   0  0  0  0  0  0  0  0  0  0  0  0
  -22.3911   -5.9650   11.8547 C   0  0  0  0  0  0  0  0  0  0  0  0
  -23.6866   -5.4486   11.8196 C   0  0  0  0  0  0  0  0  0  0  0  0
  -25.6178   -5.9052   12.0789 H   0  0  0  0  0  0  0  0  0  0  0  0
  1  5  1  0  0  0
  1  9  1  0  0  0
  2  8  2  0  0  0
  3 10  1  0  0  0
  4 13  1  0  0  0
 16 22  1  0  0  0
  5  6  1  0  0  0
  5 17  1  0  0  0
  6  8  1  0  0  0
 17 18  1  0  0  0
 17 19  2  0  0  0
  7  8  1  0  0  0
  7  9  1  0  0  0
  7 10  2  0  0  0
  9 11  2  0  0  0
 10 12  1  0  0  0
 11 13  1  0  0  0
 18 20  2  0  0  0
 19 21  1  0  0  0
 12 13  2  0  0  0
 20 22  1  0  0  0
 21 22  2  0  0  0
  3 14  1  0  0  0
  4 15  1  0  0  0
 16 23  1  0  0  0
M  END
> <PUBCHEM_COMPOUND_CID>
439246

> <PUBCHEM_CONFORMER_RMSD>
0.6

> <PUBCHEM_CONFORMER_DIVERSEORDER>
1
2
4
3

> <PUBCHEM_MMFF94_PARTIAL_CHARGES>
29
1 -0.36
10 0.42
11 0.08
12 0.08
13 -0.15
14 -0.15
15 -0.15
16 -0.15
17 0.08
18 -0.15
19 -0.15
2 -0.57
20 0.08
24 0.15
25 0.15
26 0.15
27 0.15
28 0.15
29 0.15
3 -0.53
30 0.45
31 0.45
32 0.45
4 -0.53
5 -0.53
6 0.42
7 0.06
8 -0.14
9 0.09

> <PUBCHEM_EFFECTIVE_ROTOR_COUNT>
1.6

> <PUBCHEM_PHARMACOPHORE_FEATURES>
8
1 1 acceptor
1 2 acceptor
1 3 donor
1 4 donor
1 5 donor
6 1 6 7 9 10 11 rings
6 8 14 15 18 19 20 rings
6 9 11 12 13 16 17 rings

> <PUBCHEM_HEAVY_ATOM_COUNT>
20

> <PUBCHEM_ATOM_DEF_STEREO_COUNT>
1

> <PUBCHEM_ATOM_UDEF_STEREO_COUNT>
0

> <PUBCHEM_BOND_DEF_STEREO_COUNT>
0

> <PUBCHEM_BOND_UDEF_STEREO_COUNT>
0

> <PUBCHEM_ISOTOPIC_ATOM_COUNT>
0

> <PUBCHEM_COMPONENT_COUNT>
1

> <PUBCHEM_CACTVS_TAUTO_COUNT>
42

> <PUBCHEM_CONFORMER_ID>
0006B3CE00000001

> <PUBCHEM_MMFF94_ENERGY>
57.1464

> <PUBCHEM_FEATURE_SELFOVERLAP>
40.627

> <PUBCHEM_SHAPE_FINGERPRINT>
10411042 1 18194401096497499894
10912923 1 17775289374169302715
11471102 20 18409167739986922888
11796584 16 16515682217453739826
12107183 9 17911812266988603433
12236239 1 17846782927527132233
12553582 1 18340770347454809686
12670546 56 17846780715271218321
13134695 92 18411134740508959964
13140716 1 18051691341700314056
13167823 11 18130787863002487727
13533116 47 18272650164722211747
13544592 145 17966972716770788683
13544653 18 18335425625310108060
13862211 1 18338234865420683466
13955234 65 18340485685327503208
14386348 63 17821730550577017571
14739800 52 16629947941436961896
14790565 3 17904208371068351932
15196674 1 18410573942260151277
15375462 189 18060137647747350688
15848702 151 18412829058120703567
15961568 22 16154277250766570276
16945 1 18410295852155461268
17349148 13 17846780711028842527
17357779 13 18114170922175851245
1813 80 18200606786772715838
18222031 100 18271244928563761478
200 152 18272086102577871905
20028762 73 18130783430206797126
20279233 1 17749392581021324323
20645477 70 18335135392905805654
21065198 48 18131358488072886857
21065201 7 16588021308006322843
21267235 1 18341056233378757550
21641784 216 17969523545145804468
221357 26 18261384530156296565
221490 88 18335983052420961404
22182313 1 18262780892622565436
22224240 67 18200020885253010696
2255824 54 18270403909495216028
22646028 1 17988924470476783875
23175994 123 18113341899341203757
23557571 272 17167855357525519293
23559900 14 17385448725726135674
2748010 2 18265604391306515124
2871803 45 18114181891432511050
312423 11 18269850739150516656
33824 294 18409164437578864202
345986 75 18059008367991254122
34797466 226 16515980223633069207
42630746 31 18341893026251990796
46194498 28 17531249495308006709
465052 167 18342462534140925783
474 4 18126564750224870688
5104073 3 18339643343424822625
5281201 14 18040434378108529413
573450 72 17203611476061435011
602551 16 15051441769301100109
77492 1 17775571965848046505
7970288 3 18266457603160356258
8272917 22 18412266159332382645
9709674 26 18188495786689594355
9981440 41 17334760372181838777

> <PUBCHEM_SHAPE_MULTIPOLES>
382.24
10.82
2.18
0.93
8.91
0.34
-0.06
-3.88
0.02
-3.74
0.09
1.12
-0.04
0.02

> <PUBCHEM_SHAPE_SELFOVERLAP>
848.778

> <PUBCHEM_SHAPE_VOLUME>
203.4

> <PUBCHEM_COORDINATE_TYPE>
2
5
10

> <minimizedAffinity>
-6.99894

> <CNNscore>
0.4437810779

> <CNNaffinity>
4.4413065910

> <CNN_VS>
1.9709677696

> <CNNaffinity_variance>
0.5619876981

$$$$
439246


 23 25  0  0  0  0  0  0  0  0999 V2000
  -23.6682   -5.3539    9.0132 O   0  0  0  0  0  0  0  0  0  0  0  0
  -25.7324   -1.9286    9.9279 O   0  0  0  0  0  0  0  0  0  0  0  0
  -27.4378   -2.4517    8.0303 O   0  0  0  0  0  0  0  0  0  0  0  0
  -26.8037   -6.5089    5.6488 O   0  0  0  0  0  0  0  0  0  0  0  0
  -22.9913   -4.2149    9.5675 C   0  0  0  0  0  0  0  0  0  0  0  0
  -23.9237   -3.4087   10.4695 C   0  0  0  0  0  0  0  0  0  0  0  0
  -25.5403   -3.8538    8.5748 C   0  0  0  0  0  0  0  0  0  0  0  0
  -25.1131   -2.9526    9.6649 C   0  0  0  0  0  0  0  0  0  0  0  0
  -24.8051   -5.0164    8.3253 C   0  0  0  0  0  0  0  0  0  0  0  0
  -26.6885   -3.5716    7.8306 C   0  0  0  0  0  0  0  0  0  0  0  0
  -25.2393   -5.9161    7.3508 C   0  0  0  0  0  0  0  0  0  0  0  0
  -27.1062   -4.4650    6.8435 C   0  0  0  0  0  0  0  0  0  0  0  0
  -26.3864   -5.6368    6.6074 C   0  0  0  0  0  0  0  0  0  0  0  0
  -27.1864   -1.8303    8.6850 H   0  0  0  0  0  0  0  0  0  0  0  0
  -26.3211   -7.2961    5.4894 H   0  0  0  0  0  0  0  0  0  0  0  0
  -18.4589   -6.0439   12.4299 O   0  0  0  0  0  0  0  0  0  0  0  0
  -21.7795   -4.7038   10.3326 C   0  0  0  0  0  0  0  0  0  0  0  0
  -21.4519   -6.0591   10.3262 C   0  0  0  0  0  0  0  0  0  0  0  0
  -20.9924   -3.7980   11.0428 C   0  0  0  0  0  0  0  0  0  0  0  0
  -20.3357   -6.5094   11.0312 C   0  0  0  0  0  0  0  0  0  0  0  0
  -19.8761   -4.2483   11.7478 C   0  0  0  0  0  0  0  0  0  0  0  0
  -19.5477   -5.6041   11.7419 C   0  0  0  0  0  0  0  0  0  0  0  0
  -18.2386   -6.9546   12.4257 H   0  0  0  0  0  0  0  0  0  0  0  0
  1  5  1  0  0  0
  1  9  1  0  0  0
  2  8  2  0  0  0
  3 10  1  0  0  0
  4 13  1  0  0  0
 16 22  1  0  0  0
  5  6  1  0  0  0
  5 17  1  0  0  0
  6  8  1  0  0  0
 17 18  1  0  0  0
 17 19  2  0  0  0
  7  8  1  0  0  0
  7  9  1  0  0  0
  7 10  2  0  0  0
  9 11  2  0  0  0
 10 12  1  0  0  0
 11 13  1  0  0  0
 18 20  2  0  0  0
 19 21  1  0  0  0
 12 13  2  0  0  0
 20 22  1  0  0  0
 21 22  2  0  0  0
  3 14  1  0  0  0
  4 15  1  0  0  0
 16 23  1  0  0  0
M  END
> <PUBCHEM_COMPOUND_CID>
439246

> <PUBCHEM_CONFORMER_RMSD>
0.6

> <PUBCHEM_CONFORMER_DIVERSEORDER>
1
2
4
3

> <PUBCHEM_MMFF94_PARTIAL_CHARGES>
29
1 -0.36
10 0.42
11 0.08
12 0.08
13 -0.15
14 -0.15
15 -0.15
16 -0.15
17 0.08
18 -0.15
19 -0.15
2 -0.57
20 0.08
24 0.15
25 0.15
26 0.15
27 0.15
28 0.15
29 0.15
3 -0.53
30 0.45
31 0.45
32 0.45
4 -0.53
5 -0.53
6 0.42
7 0.06
8 -0.14
9 0.09

> <PUBCHEM_EFFECTIVE_ROTOR_COUNT>
1.6

> <PUBCHEM_PHARMACOPHORE_FEATURES>
8
1 1 acceptor
1 2 acceptor
1 3 donor
1 4 donor
1 5 donor
6 1 6 7 9 10 11 rings
6 8 14 15 18 19 20 rings
6 9 11 12 13 16 17 rings

> <PUBCHEM_HEAVY_ATOM_COUNT>
20

> <PUBCHEM_ATOM_DEF_STEREO_COUNT>
1

> <PUBCHEM_ATOM_UDEF_STEREO_COUNT>
0

> <PUBCHEM_BOND_DEF_STEREO_COUNT>
0

> <PUBCHEM_BOND_UDEF_STEREO_COUNT>
0

> <PUBCHEM_ISOTOPIC_ATOM_COUNT>
0

> <PUBCHEM_COMPONENT_COUNT>
1

> <PUBCHEM_CACTVS_TAUTO_COUNT>
42

> <PUBCHEM_CONFORMER_ID>
0006B3CE00000001

> <PUBCHEM_MMFF94_ENERGY>
57.1464

> <PUBCHEM_FEATURE_SELFOVERLAP>
40.627

> <PUBCHEM_SHAPE_FINGERPRINT>
10411042 1 18194401096497499894
10912923 1 17775289374169302715
11471102 20 18409167739986922888
11796584 16 16515682217453739826
12107183 9 17911812266988603433
12236239 1 17846782927527132233
12553582 1 18340770347454809686
12670546 56 17846780715271218321
13134695 92 18411134740508959964
13140716 1 18051691341700314056
13167823 11 18130787863002487727
13533116 47 18272650164722211747
13544592 145 17966972716770788683
13544653 18 18335425625310108060
13862211 1 18338234865420683466
13955234 65 18340485685327503208
14386348 63 17821730550577017571
14739800 52 16629947941436961896
14790565 3 17904208371068351932
15196674 1 18410573942260151277
15375462 189 18060137647747350688
15848702 151 18412829058120703567
15961568 22 16154277250766570276
16945 1 18410295852155461268
17349148 13 17846780711028842527
17357779 13 18114170922175851245
1813 80 18200606786772715838
18222031 100 18271244928563761478
200 152 18272086102577871905
20028762 73 18130783430206797126
20279233 1 17749392581021324323
20645477 70 18335135392905805654
21065198 48 18131358488072886857
21065201 7 16588021308006322843
21267235 1 18341056233378757550
21641784 216 17969523545145804468
221357 26 18261384530156296565
221490 88 18335983052420961404
22182313 1 18262780892622565436
22224240 67 18200020885253010696
2255824 54 18270403909495216028
22646028 1 17988924470476783875
23175994 123 18113341899341203757
23557571 272 17167855357525519293
23559900 14 17385448725726135674
2748010 2 18265604391306515124
2871803 45 18114181891432511050
312423 11 18269850739150516656
33824 294 18409164437578864202
345986 75 18059008367991254122
34797466 226 16515980223633069207
42630746 31 18341893026251990796
46194498 28 17531249495308006709
465052 167 18342462534140925783
474 4 18126564750224870688
5104073 3 18339643343424822625
5281201 14 18040434378108529413
573450 72 17203611476061435011
602551 16 15051441769301100109
77492 1 17775571965848046505
7970288 3 18266457603160356258
8272917 22 18412266159332382645
9709674 26 18188495786689594355
9981440 41 17334760372181838777

> <PUBCHEM_SHAPE_MULTIPOLES>
382.24
10.82
2.18
0.93
8.91
0.34
-0.06
-3.88
0.02
-3.74
0.09
1.12
-0.04
0.02

> <PUBCHEM_SHAPE_SELFOVERLAP>
848.778

> <PUBCHEM_SHAPE_VOLUME>
203.4

> <PUBCHEM_COORDINATE_TYPE>
2
5
10

> <minimizedAffinity>
-3.98734

> <CNNscore>
0.4433248341

> <CNNaffinity>
4.0496544838

> <CNN_VS>
1.7953124046

> <CNNaffinity_variance>
0.0662063509

$$$$
