440735


 25 27  0  0  0  0  0  0  0  0999 V2000
  -18.2995   -0.4019   13.9724 O   0  0  0  0  0  0  0  0  0  0  0  0
  -20.0895    3.1294   12.8966 O   0  0  0  0  0  0  0  0  0  0  0  0
  -18.6542    3.1931   10.7243 O   0  0  0  0  0  0  0  0  0  0  0  0
  -15.7589   -0.4922    9.9695 O   0  0  0  0  0  0  0  0  0  0  0  0
  -18.7807    0.5112   14.9711 C   0  0  0  0  0  0  0  0  0  0  0  0
  -19.9767    1.3082   14.4542 C   0  0  0  0  0  0  0  0  0  0  0  0
  -18.5298    1.4330   12.3825 C   0  0  0  0  0  0  0  0  0  0  0  0
  -19.5638    2.0717   13.2228 C   0  0  0  0  0  0  0  0  0  0  0  0
  -17.9718    0.2193   12.7949 C   0  0  0  0  0  0  0  0  0  0  0  0
  -18.1450    2.0110   11.1702 C   0  0  0  0  0  0  0  0  0  0  0  0
  -17.0508   -0.4346   11.9755 C   0  0  0  0  0  0  0  0  0  0  0  0
  -17.2083    1.3624   10.3647 C   0  0  0  0  0  0  0  0  0  0  0  0
  -16.6660    0.1402   10.7638 C   0  0  0  0  0  0  0  0  0  0  0  0
  -19.2853    3.6556   11.2399 H   0  0  0  0  0  0  0  0  0  0  0  0
  -15.3941   -1.3130   10.2366 H   0  0  0  0  0  0  0  0  0  0  0  0
  -21.9316   -0.6141   18.5513 O   0  0  0  0  0  0  0  0  0  0  0  0
  -20.1380   -2.4600   19.5996 O   0  0  0  0  0  0  0  0  0  0  0  0
  -19.1464   -0.2818   16.2081 C   0  0  0  0  0  0  0  0  0  0  0  0
  -20.3838   -0.0855   16.8206 C   0  0  0  0  0  0  0  0  0  0  0  0
  -18.2456   -1.2073   16.7343 C   0  0  0  0  0  0  0  0  0  0  0  0
  -20.7209   -0.8153   17.9603 C   0  0  0  0  0  0  0  0  0  0  0  0
  -18.5828   -1.9371   17.8741 C   0  0  0  0  0  0  0  0  0  0  0  0
  -19.8203   -1.7412   18.4871 C   0  0  0  0  0  0  0  0  0  0  0  0
  -22.5309    0.0097   18.1911 H   0  0  0  0  0  0  0  0  0  0  0  0
  -20.9672   -2.3344   20.0175 H   0  0  0  0  0  0  0  0  0  0  0  0
  1  5  1  0  0  0
  1  9  1  0  0  0
  2  8  2  0  0  0
  3 10  1  0  0  0
  4 13  1  0  0  0
 16 21  1  0  0  0
 17 23  1  0  0  0
  5  6  1  0  0  0
  5 18  1  0  0  0
  6  8  1  0  0  0
 18 19  2  0  0  0
 18 20  1  0  0  0
  7  8  1  0  0  0
  7  9  1  0  0  0
  7 10  2  0  0  0
  9 11  2  0  0  0
 10 12  1  0  0  0
 19 21  1  0  0  0
 20 22  2  0  0  0
 11 13  1  0  0  0
 12 13  2  0  0  0
 21 23  2  0  0  0
 22 23  1  0  0  0
  3 14  1  0  0  0
  4 15  1  0  0  0
 16 24  1  0  0  0
 17 25  1  0  0  0
M  END
> <PUBCHEM_COMPOUND_CID>
440735

> <PUBCHEM_CONFORMER_RMSD>
0.6

> <PUBCHEM_CONFORMER_DIVERSEORDER>
1
5
3
12
6
8
9
2
7
11
4
10

> <PUBCHEM_MMFF94_PARTIAL_CHARGES>
30
1 -0.36
10 0.09
11 0.42
12 0.08
13 0.08
14 -0.15
15 -0.15
16 -0.15
17 -0.15
18 0.08
19 0.08
2 -0.57
20 -0.15
21 0.08
25 0.15
26 0.15
27 0.15
28 0.15
29 0.15
3 -0.53
30 0.45
31 0.45
32 0.45
33 0.45
4 -0.53
5 -0.53
6 -0.53
7 0.42
8 0.06
9 -0.14

> <PUBCHEM_EFFECTIVE_ROTOR_COUNT>
1.6

> <PUBCHEM_PHARMACOPHORE_FEATURES>
9
1 1 acceptor
1 2 acceptor
1 3 donor
1 4 donor
1 5 donor
1 6 donor
6 1 7 8 10 11 12 rings
6 10 12 13 16 17 18 rings
6 9 14 15 19 20 21 rings

> <PUBCHEM_HEAVY_ATOM_COUNT>
21

> <PUBCHEM_ATOM_DEF_STEREO_COUNT>
1

> <PUBCHEM_ATOM_UDEF_STEREO_COUNT>
0

> <PUBCHEM_BOND_DEF_STEREO_COUNT>
0

> <PUBCHEM_BOND_UDEF_STEREO_COUNT>
0

> <PUBCHEM_ISOTOPIC_ATOM_COUNT>
0

> <PUBCHEM_COMPONENT_COUNT>
1

> <PUBCHEM_CACTVS_TAUTO_COUNT>
210

> <PUBCHEM_CONFORMER_ID>
0006B99F00000001

> <PUBCHEM_MMFF94_ENERGY>
59.3348

> <PUBCHEM_FEATURE_SELFOVERLAP>
45.706

> <PUBCHEM_SHAPE_FINGERPRINT>
10411042 1 18193840345656972458
10622 236 17915994985135910311
10912923 1 17704075100980585555
11471102 20 18408887360437875824
11796584 16 16443339837330519890
12107183 9 17839475392528231841
12236239 1 17846502547698529897
12403259 415 17603302657366984853
12553582 1 18339931424372457054
12616971 3 18131069316493766895
13134695 92 18410012139237220932
13140716 1 18123470755117485464
13167823 11 18060421313415870895
13533116 47 18272370884310252635
13544653 18 18335707096160682412
13760787 5 18342737412189807143
13862211 1 18337954490039983666
14386348 63 17749112205529776673
15196674 1 18337955597286782848
15788980 27 18343580716259964887
15848702 151 18412266108008994151
15961568 22 15936981875881220316
17349148 13 17988926669305114007
17357779 13 18114174216278649605
1813 80 18199764560881650630
18222031 100 18270960146673261878
200 152 18343863312365636145
20028762 73 18202280269220032478
20645477 70 18334294270932086002
21033648 29 17822561789984333989
21065201 7 16370725937299973755
21267235 1 18340495478264387710
21641784 216 17969243169744018604
221357 26 18260822679688181229
221490 88 18262807400612090035
22224240 67 18200583826737816768
22646028 1 17989486320802545827
23175994 123 18040722459093184965
23402539 116 18340206263213232338
23557571 272 16950561095136951597
23559900 14 17167860829567015978
23596394 208 17967245377883822595
2871803 45 18114182991128709714
314194 84 18342455937034105566
33824 294 18408885157446479880
345986 75 18058727992668531098
34797466 226 16588320391995792254
46194498 28 17458911547401313933
474 4 18126846225370418952
5104073 3 18340491066778990265
5281201 14 17822012003736182717
573450 72 17132116827560609323
602551 16 15267054895606394037
7471813 234 18060133236927129873
77492 1 17775010115379898801
7970288 3 18266178323070170050
9981440 41 17335605896518103553

> <PUBCHEM_SHAPE_MULTIPOLES>
396.95
11.18
2.12
1.11
6.8
0.3
0.1
-3.77
0.55
-3.9
0.11
1.88
-0.09
-0.13

> <PUBCHEM_SHAPE_SELFOVERLAP>
882.864

> <PUBCHEM_SHAPE_VOLUME>
210.9

> <PUBCHEM_COORDINATE_TYPE>
2
5
10

> <minimizedAffinity>
-8.88021

> <CNNscore>
0.5491372347

> <CNNaffinity>
5.0235795975

> <CNN_VS>
2.7586345673

> <CNNaffinity_variance>
0.0509618297

$$$$
440735


 25 27  0  0  0  0  0  0  0  0999 V2000
  -23.7073   -2.9808    9.5059 O   0  0  0  0  0  0  0  0  0  0  0  0
  -25.7003   -5.4870    6.9412 O   0  0  0  0  0  0  0  0  0  0  0  0
  -27.4551   -3.6183    6.4815 O   0  0  0  0  0  0  0  0  0  0  0  0
  -26.7337    0.5598    8.6166 O   0  0  0  0  0  0  0  0  0  0  0  0
  -23.6763   -4.4037    9.6983 C   0  0  0  0  0  0  0  0  0  0  0  0
  -23.8015   -5.1396    8.3658 C   0  0  0  0  0  0  0  0  0  0  0  0
  -25.5643   -3.3678    7.9731 C   0  0  0  0  0  0  0  0  0  0  0  0
  -25.0959   -4.7431    7.7046 C   0  0  0  0  0  0  0  0  0  0  0  0
  -24.8296   -2.5562    8.8427 C   0  0  0  0  0  0  0  0  0  0  0  0
  -26.7019   -2.8689    7.3339 C   0  0  0  0  0  0  0  0  0  0  0  0
  -25.2156   -1.2308    9.0469 C   0  0  0  0  0  0  0  0  0  0  0  0
  -27.0945   -1.5488    7.5580 C   0  0  0  0  0  0  0  0  0  0  0  0
  -26.3507   -0.7301    8.4085 C   0  0  0  0  0  0  0  0  0  0  0  0
  -27.2202   -4.5086    6.3081 H   0  0  0  0  0  0  0  0  0  0  0  0
  -26.2349    1.1103    9.1875 H   0  0  0  0  0  0  0  0  0  0  0  0
  -20.3854   -3.6418   13.2482 O   0  0  0  0  0  0  0  0  0  0  0  0
  -18.8410   -5.7581   12.3210 O   0  0  0  0  0  0  0  0  0  0  0  0
  -22.3846   -4.7636   10.4016 C   0  0  0  0  0  0  0  0  0  0  0  0
  -21.9708   -4.0328   11.5148 C   0  0  0  0  0  0  0  0  0  0  0  0
  -21.6095   -5.8251    9.9354 C   0  0  0  0  0  0  0  0  0  0  0  0
  -20.7808   -4.3637   12.1627 C   0  0  0  0  0  0  0  0  0  0  0  0
  -20.4194   -6.1559   10.5833 C   0  0  0  0  0  0  0  0  0  0  0  0
  -20.0050   -5.4253   11.6968 C   0  0  0  0  0  0  0  0  0  0  0  0
  -20.9122   -2.9301   13.5547 H   0  0  0  0  0  0  0  0  0  0  0  0
  -18.5554   -5.2724   13.0697 H   0  0  0  0  0  0  0  0  0  0  0  0
  1  5  1  0  0  0
  1  9  1  0  0  0
  2  8  2  0  0  0
  3 10  1  0  0  0
  4 13  1  0  0  0
 16 21  1  0  0  0
 17 23  1  0  0  0
  5  6  1  0  0  0
  5 18  1  0  0  0
  6  8  1  0  0  0
 18 19  2  0  0  0
 18 20  1  0  0  0
  7  8  1  0  0  0
  7  9  1  0  0  0
  7 10  2  0  0  0
  9 11  2  0  0  0
 10 12  1  0  0  0
 19 21  1  0  0  0
 20 22  2  0  0  0
 11 13  1  0  0  0
 12 13  2  0  0  0
 21 23  2  0  0  0
 22 23  1  0  0  0
  3 14  1  0  0  0
  4 15  1  0  0  0
 16 24  1  0  0  0
 17 25  1  0  0  0
M  END
> <PUBCHEM_COMPOUND_CID>
440735

> <PUBCHEM_CONFORMER_RMSD>
0.6

> <PUBCHEM_CONFORMER_DIVERSEORDER>
1
5
3
12
6
8
9
2
7
11
4
10

> <PUBCHEM_MMFF94_PARTIAL_CHARGES>
30
1 -0.36
10 0.09
11 0.42
12 0.08
13 0.08
14 -0.15
15 -0.15
16 -0.15
17 -0.15
18 0.08
19 0.08
2 -0.57
20 -0.15
21 0.08
25 0.15
26 0.15
27 0.15
28 0.15
29 0.15
3 -0.53
30 0.45
31 0.45
32 0.45
33 0.45
4 -0.53
5 -0.53
6 -0.53
7 0.42
8 0.06
9 -0.14

> <PUBCHEM_EFFECTIVE_ROTOR_COUNT>
1.6

> <PUBCHEM_PHARMACOPHORE_FEATURES>
9
1 1 acceptor
1 2 acceptor
1 3 donor
1 4 donor
1 5 donor
1 6 donor
6 1 7 8 10 11 12 rings
6 10 12 13 16 17 18 rings
6 9 14 15 19 20 21 rings

> <PUBCHEM_HEAVY_ATOM_COUNT>
21

> <PUBCHEM_ATOM_DEF_STEREO_COUNT>
1

> <PUBCHEM_ATOM_UDEF_STEREO_COUNT>
0

> <PUBCHEM_BOND_DEF_STEREO_COUNT>
0

> <PUBCHEM_BOND_UDEF_STEREO_COUNT>
0

> <PUBCHEM_ISOTOPIC_ATOM_COUNT>
0

> <PUBCHEM_COMPONENT_COUNT>
1

> <PUBCHEM_CACTVS_TAUTO_COUNT>
210

> <PUBCHEM_CONFORMER_ID>
0006B99F00000001

> <PUBCHEM_MMFF94_ENERGY>
59.3348

> <PUBCHEM_FEATURE_SELFOVERLAP>
45.706

> <PUBCHEM_SHAPE_FINGERPRINT>
10411042 1 18193840345656972458
10622 236 17915994985135910311
10912923 1 17704075100980585555
11471102 20 18408887360437875824
11796584 16 16443339837330519890
12107183 9 17839475392528231841
12236239 1 17846502547698529897
12403259 415 17603302657366984853
12553582 1 18339931424372457054
12616971 3 18131069316493766895
13134695 92 18410012139237220932
13140716 1 18123470755117485464
13167823 11 18060421313415870895
13533116 47 18272370884310252635
13544653 18 18335707096160682412
13760787 5 18342737412189807143
13862211 1 18337954490039983666
14386348 63 17749112205529776673
15196674 1 18337955597286782848
15788980 27 18343580716259964887
15848702 151 18412266108008994151
15961568 22 15936981875881220316
17349148 13 17988926669305114007
17357779 13 18114174216278649605
1813 80 18199764560881650630
18222031 100 18270960146673261878
200 152 18343863312365636145
20028762 73 18202280269220032478
20645477 70 18334294270932086002
21033648 29 17822561789984333989
21065201 7 16370725937299973755
21267235 1 18340495478264387710
21641784 216 17969243169744018604
221357 26 18260822679688181229
221490 88 18262807400612090035
22224240 67 18200583826737816768
22646028 1 17989486320802545827
23175994 123 18040722459093184965
23402539 116 18340206263213232338
23557571 272 16950561095136951597
23559900 14 17167860829567015978
23596394 208 17967245377883822595
2871803 45 18114182991128709714
314194 84 18342455937034105566
33824 294 18408885157446479880
345986 75 18058727992668531098
34797466 226 16588320391995792254
46194498 28 17458911547401313933
474 4 18126846225370418952
5104073 3 18340491066778990265
5281201 14 17822012003736182717
573450 72 17132116827560609323
602551 16 15267054895606394037
7471813 234 18060133236927129873
77492 1 17775010115379898801
7970288 3 18266178323070170050
9981440 41 17335605896518103553

> <PUBCHEM_SHAPE_MULTIPOLES>
396.95
11.18
2.12
1.11
6.8
0.3
0.1
-3.77
0.55
-3.9
0.11
1.88
-0.09
-0.13

> <PUBCHEM_SHAPE_SELFOVERLAP>
882.864

> <PUBCHEM_SHAPE_VOLUME>
210.9

> <PUBCHEM_COORDINATE_TYPE>
2
5
10

> <minimizedAffinity>
-4.47615

> <CNNscore>
0.4569143057

> <CNNaffinity>
4.0848746300

> <CNN_VS>
1.8664376736

> <CNNaffinity_variance>
0.0568213686

$$$$
440735


 25 27  0  0  0  0  0  0  0  0999 V2000
  -22.8504   -3.2276   12.0320 O   0  0  0  0  0  0  0  0  0  0  0  0
  -24.6001   -6.6978   10.7176 O   0  0  0  0  0  0  0  0  0  0  0  0
  -22.2688   -7.5895    9.9740 O   0  0  0  0  0  0  0  0  0  0  0  0
  -18.5300   -4.8099   10.8849 O   0  0  0  0  0  0  0  0  0  0  0  0
  -24.2056   -3.2319   11.5565 C   0  0  0  0  0  0  0  0  0  0  0  0
  -24.8725   -4.5816   11.8144 C   0  0  0  0  0  0  0  0  0  0  0  0
  -22.6299   -5.4292   11.0063 C   0  0  0  0  0  0  0  0  0  0  0  0
  -24.0849   -5.6605   11.1177 C   0  0  0  0  0  0  0  0  0  0  0  0
  -22.0918   -4.2333   11.4909 C   0  0  0  0  0  0  0  0  0  0  0  0
  -21.7957   -6.4097   10.4635 C   0  0  0  0  0  0  0  0  0  0  0  0
  -20.7111   -4.0323   11.4629 C   0  0  0  0  0  0  0  0  0  0  0  0
  -20.4178   -6.1943   10.4197 C   0  0  0  0  0  0  0  0  0  0  0  0
  -19.8761   -5.0108   10.9225 C   0  0  0  0  0  0  0  0  0  0  0  0
  -23.1887   -7.7672    9.9878 H   0  0  0  0  0  0  0  0  0  0  0  0
  -18.1652   -4.0155   11.2223 H   0  0  0  0  0  0  0  0  0  0  0  0
  -24.6664    1.4944   12.7656 O   0  0  0  0  0  0  0  0  0  0  0  0
  -27.0257    0.9529   14.1308 O   0  0  0  0  0  0  0  0  0  0  0  0
  -24.9574   -2.1113   12.2432 C   0  0  0  0  0  0  0  0  0  0  0  0
  -24.4653   -0.8076   12.1899 C   0  0  0  0  0  0  0  0  0  0  0  0
  -26.1408   -2.3837   12.9290 C   0  0  0  0  0  0  0  0  0  0  0  0
  -25.1573    0.2249   12.8228 C   0  0  0  0  0  0  0  0  0  0  0  0
  -26.8327   -1.3510   13.5619 C   0  0  0  0  0  0  0  0  0  0  0  0
  -26.3410   -0.0469   13.5088 C   0  0  0  0  0  0  0  0  0  0  0  0
  -23.8706    1.6686   12.3027 H   0  0  0  0  0  0  0  0  0  0  0  0
  -26.7023    1.8318   14.1000 H   0  0  0  0  0  0  0  0  0  0  0  0
  1  5  1  0  0  0
  1  9  1  0  0  0
  2  8  2  0  0  0
  3 10  1  0  0  0
  4 13  1  0  0  0
 16 21  1  0  0  0
 17 23  1  0  0  0
  5  6  1  0  0  0
  5 18  1  0  0  0
  6  8  1  0  0  0
 18 19  2  0  0  0
 18 20  1  0  0  0
  7  8  1  0  0  0
  7  9  1  0  0  0
  7 10  2  0  0  0
  9 11  2  0  0  0
 10 12  1  0  0  0
 19 21  1  0  0  0
 20 22  2  0  0  0
 11 13  1  0  0  0
 12 13  2  0  0  0
 21 23  2  0  0  0
 22 23  1  0  0  0
  3 14  1  0  0  0
  4 15  1  0  0  0
 16 24  1  0  0  0
 17 25  1  0  0  0
M  END
> <PUBCHEM_COMPOUND_CID>
440735

> <PUBCHEM_CONFORMER_RMSD>
0.6

> <PUBCHEM_CONFORMER_DIVERSEORDER>
1
5
3
12
6
8
9
2
7
11
4
10

> <PUBCHEM_MMFF94_PARTIAL_CHARGES>
30
1 -0.36
10 0.09
11 0.42
12 0.08
13 0.08
14 -0.15
15 -0.15
16 -0.15
17 -0.15
18 0.08
19 0.08
2 -0.57
20 -0.15
21 0.08
25 0.15
26 0.15
27 0.15
28 0.15
29 0.15
3 -0.53
30 0.45
31 0.45
32 0.45
33 0.45
4 -0.53
5 -0.53
6 -0.53
7 0.42
8 0.06
9 -0.14

> <PUBCHEM_EFFECTIVE_ROTOR_COUNT>
1.6

> <PUBCHEM_PHARMACOPHORE_FEATURES>
9
1 1 acceptor
1 2 acceptor
1 3 donor
1 4 donor
1 5 donor
1 6 donor
6 1 7 8 10 11 12 rings
6 10 12 13 16 17 18 rings
6 9 14 15 19 20 21 rings

> <PUBCHEM_HEAVY_ATOM_COUNT>
21

> <PUBCHEM_ATOM_DEF_STEREO_COUNT>
1

> <PUBCHEM_ATOM_UDEF_STEREO_COUNT>
0

> <PUBCHEM_BOND_DEF_STEREO_COUNT>
0

> <PUBCHEM_BOND_UDEF_STEREO_COUNT>
0

> <PUBCHEM_ISOTOPIC_ATOM_COUNT>
0

> <PUBCHEM_COMPONENT_COUNT>
1

> <PUBCHEM_CACTVS_TAUTO_COUNT>
210

> <PUBCHEM_CONFORMER_ID>
0006B99F00000001

> <PUBCHEM_MMFF94_ENERGY>
59.3348

> <PUBCHEM_FEATURE_SELFOVERLAP>
45.706

> <PUBCHEM_SHAPE_FINGERPRINT>
10411042 1 18193840345656972458
10622 236 17915994985135910311
10912923 1 17704075100980585555
11471102 20 18408887360437875824
11796584 16 16443339837330519890
12107183 9 17839475392528231841
12236239 1 17846502547698529897
12403259 415 17603302657366984853
12553582 1 18339931424372457054
12616971 3 18131069316493766895
13134695 92 18410012139237220932
13140716 1 18123470755117485464
13167823 11 18060421313415870895
13533116 47 18272370884310252635
13544653 18 18335707096160682412
13760787 5 18342737412189807143
13862211 1 18337954490039983666
14386348 63 17749112205529776673
15196674 1 18337955597286782848
15788980 27 18343580716259964887
15848702 151 18412266108008994151
15961568 22 15936981875881220316
17349148 13 17988926669305114007
17357779 13 18114174216278649605
1813 80 18199764560881650630
18222031 100 18270960146673261878
200 152 18343863312365636145
20028762 73 18202280269220032478
20645477 70 18334294270932086002
21033648 29 17822561789984333989
21065201 7 16370725937299973755
21267235 1 18340495478264387710
21641784 216 17969243169744018604
221357 26 18260822679688181229
221490 88 18262807400612090035
22224240 67 18200583826737816768
22646028 1 17989486320802545827
23175994 123 18040722459093184965
23402539 116 18340206263213232338
23557571 272 16950561095136951597
23559900 14 17167860829567015978
23596394 208 17967245377883822595
2871803 45 18114182991128709714
314194 84 18342455937034105566
33824 294 18408885157446479880
345986 75 18058727992668531098
34797466 226 16588320391995792254
46194498 28 17458911547401313933
474 4 18126846225370418952
5104073 3 18340491066778990265
5281201 14 17822012003736182717
573450 72 17132116827560609323
602551 16 15267054895606394037
7471813 234 18060133236927129873
77492 1 17775010115379898801
7970288 3 18266178323070170050
9981440 41 17335605896518103553

> <PUBCHEM_SHAPE_MULTIPOLES>
396.95
11.18
2.12
1.11
6.8
0.3
0.1
-3.77
0.55
-3.9
0.11
1.88
-0.09
-0.13

> <PUBCHEM_SHAPE_SELFOVERLAP>
882.864

> <PUBCHEM_SHAPE_VOLUME>
210.9

> <PUBCHEM_COORDINATE_TYPE>
2
5
10

> <minimizedAffinity>
-6.53520

> <CNNscore>
0.4517631531

> <CNNaffinity>
4.0340075493

> <CNN_VS>
1.8224159479

> <CNNaffinity_variance>
0.0562246963

$$$$
440735


 25 27  0  0  0  0  0  0  0  0999 V2000
  -23.3376   -3.0181   10.9108 O   0  0  0  0  0  0  0  0  0  0  0  0
  -19.9888   -2.7318   13.2634 O   0  0  0  0  0  0  0  0  0  0  0  0
  -19.1040   -4.9724   12.2735 O   0  0  0  0  0  0  0  0  0  0  0  0
  -21.7534   -7.0114    8.9034 O   0  0  0  0  0  0  0  0  0  0  0  0
  -23.3875   -2.3480   12.1801 C   0  0  0  0  0  0  0  0  0  0  0  0
  -22.0364   -1.7239   12.5237 C   0  0  0  0  0  0  0  0  0  0  0  0
  -21.2013   -3.9421   11.6387 C   0  0  0  0  0  0  0  0  0  0  0  0
  -20.9895   -2.8067   12.5602 C   0  0  0  0  0  0  0  0  0  0  0  0
  -22.3545   -3.9717   10.8490 C   0  0  0  0  0  0  0  0  0  0  0  0
  -20.2421   -4.9515   11.5253 C   0  0  0  0  0  0  0  0  0  0  0  0
  -22.5321   -4.9968    9.9189 C   0  0  0  0  0  0  0  0  0  0  0  0
  -20.4351   -5.9849   10.6078 C   0  0  0  0  0  0  0  0  0  0  0  0
  -21.5747   -6.0052    9.8030 C   0  0  0  0  0  0  0  0  0  0  0  0
  -18.9423   -4.2940   12.8993 H   0  0  0  0  0  0  0  0  0  0  0  0
  -22.5184   -7.0259    8.3625 H   0  0  0  0  0  0  0  0  0  0  0  0
  -26.8667    0.3241   14.3635 O   0  0  0  0  0  0  0  0  0  0  0  0
  -27.4590    1.5846   11.9586 O   0  0  0  0  0  0  0  0  0  0  0  0
  -24.4760   -1.2970   12.1241 C   0  0  0  0  0  0  0  0  0  0  0  0
  -25.1806   -0.9618   13.2798 C   0  0  0  0  0  0  0  0  0  0  0  0
  -24.7735   -0.6654   10.9168 C   0  0  0  0  0  0  0  0  0  0  0  0
  -26.1837    0.0059   13.2286 C   0  0  0  0  0  0  0  0  0  0  0  0
  -25.7767    0.3024   10.8656 C   0  0  0  0  0  0  0  0  0  0  0  0
  -26.4817    0.6380   12.0214 C   0  0  0  0  0  0  0  0  0  0  0  0
  -26.6603   -0.1052   15.1704 H   0  0  0  0  0  0  0  0  0  0  0  0
  -27.9374    1.8160   12.7303 H   0  0  0  0  0  0  0  0  0  0  0  0
  1  5  1  0  0  0
  1  9  1  0  0  0
  2  8  2  0  0  0
  3 10  1  0  0  0
  4 13  1  0  0  0
 16 21  1  0  0  0
 17 23  1  0  0  0
  5  6  1  0  0  0
  5 18  1  0  0  0
  6  8  1  0  0  0
 18 19  2  0  0  0
 18 20  1  0  0  0
  7  8  1  0  0  0
  7  9  1  0  0  0
  7 10  2  0  0  0
  9 11  2  0  0  0
 10 12  1  0  0  0
 19 21  1  0  0  0
 20 22  2  0  0  0
 11 13  1  0  0  0
 12 13  2  0  0  0
 21 23  2  0  0  0
 22 23  1  0  0  0
  3 14  1  0  0  0
  4 15  1  0  0  0
 16 24  1  0  0  0
 17 25  1  0  0  0
M  END
> <PUBCHEM_COMPOUND_CID>
440735

> <PUBCHEM_CONFORMER_RMSD>
0.6

> <PUBCHEM_CONFORMER_DIVERSEORDER>
1
5
3
12
6
8
9
2
7
11
4
10

> <PUBCHEM_MMFF94_PARTIAL_CHARGES>
30
1 -0.36
10 0.09
11 0.42
12 0.08
13 0.08
14 -0.15
15 -0.15
16 -0.15
17 -0.15
18 0.08
19 0.08
2 -0.57
20 -0.15
21 0.08
25 0.15
26 0.15
27 0.15
28 0.15
29 0.15
3 -0.53
30 0.45
31 0.45
32 0.45
33 0.45
4 -0.53
5 -0.53
6 -0.53
7 0.42
8 0.06
9 -0.14

> <PUBCHEM_EFFECTIVE_ROTOR_COUNT>
1.6

> <PUBCHEM_PHARMACOPHORE_FEATURES>
9
1 1 acceptor
1 2 acceptor
1 3 donor
1 4 donor
1 5 donor
1 6 donor
6 1 7 8 10 11 12 rings
6 10 12 13 16 17 18 rings
6 9 14 15 19 20 21 rings

> <PUBCHEM_HEAVY_ATOM_COUNT>
21

> <PUBCHEM_ATOM_DEF_STEREO_COUNT>
1

> <PUBCHEM_ATOM_UDEF_STEREO_COUNT>
0

> <PUBCHEM_BOND_DEF_STEREO_COUNT>
0

> <PUBCHEM_BOND_UDEF_STEREO_COUNT>
0

> <PUBCHEM_ISOTOPIC_ATOM_COUNT>
0

> <PUBCHEM_COMPONENT_COUNT>
1

> <PUBCHEM_CACTVS_TAUTO_COUNT>
210

> <PUBCHEM_CONFORMER_ID>
0006B99F00000001

> <PUBCHEM_MMFF94_ENERGY>
59.3348

> <PUBCHEM_FEATURE_SELFOVERLAP>
45.706

> <PUBCHEM_SHAPE_FINGERPRINT>
10411042 1 18193840345656972458
10622 236 17915994985135910311
10912923 1 17704075100980585555
11471102 20 18408887360437875824
11796584 16 16443339837330519890
12107183 9 17839475392528231841
12236239 1 17846502547698529897
12403259 415 17603302657366984853
12553582 1 18339931424372457054
12616971 3 18131069316493766895
13134695 92 18410012139237220932
13140716 1 18123470755117485464
13167823 11 18060421313415870895
13533116 47 18272370884310252635
13544653 18 18335707096160682412
13760787 5 18342737412189807143
13862211 1 18337954490039983666
14386348 63 17749112205529776673
15196674 1 18337955597286782848
15788980 27 18343580716259964887
15848702 151 18412266108008994151
15961568 22 15936981875881220316
17349148 13 17988926669305114007
17357779 13 18114174216278649605
1813 80 18199764560881650630
18222031 100 18270960146673261878
200 152 18343863312365636145
20028762 73 18202280269220032478
20645477 70 18334294270932086002
21033648 29 17822561789984333989
21065201 7 16370725937299973755
21267235 1 18340495478264387710
21641784 216 17969243169744018604
221357 26 18260822679688181229
221490 88 18262807400612090035
22224240 67 18200583826737816768
22646028 1 17989486320802545827
23175994 123 18040722459093184965
23402539 116 18340206263213232338
23557571 272 16950561095136951597
23559900 14 17167860829567015978
23596394 208 17967245377883822595
2871803 45 18114182991128709714
314194 84 18342455937034105566
33824 294 18408885157446479880
345986 75 18058727992668531098
34797466 226 16588320391995792254
46194498 28 17458911547401313933
474 4 18126846225370418952
5104073 3 18340491066778990265
5281201 14 17822012003736182717
573450 72 17132116827560609323
602551 16 15267054895606394037
7471813 234 18060133236927129873
77492 1 17775010115379898801
7970288 3 18266178323070170050
9981440 41 17335605896518103553

> <PUBCHEM_SHAPE_MULTIPOLES>
396.95
11.18
2.12
1.11
6.8
0.3
0.1
-3.77
0.55
-3.9
0.11
1.88
-0.09
-0.13

> <PUBCHEM_SHAPE_SELFOVERLAP>
882.864

> <PUBCHEM_SHAPE_VOLUME>
210.9

> <PUBCHEM_COORDINATE_TYPE>
2
5
10

> <minimizedAffinity>
-5.68011

> <CNNscore>
0.3915602565

> <CNNaffinity>
3.9537348747

> <CNN_VS>
1.5481253862

> <CNNaffinity_variance>
0.0264691468

$$$$
440735


 25 27  0  0  0  0  0  0  0  0999 V2000
  -21.6984   -1.8945   13.4666 O   0  0  0  0  0  0  0  0  0  0  0  0
  -18.8904   -3.9976   11.3397 O   0  0  0  0  0  0  0  0  0  0  0  0
  -20.7374   -4.7809    9.6791 O   0  0  0  0  0  0  0  0  0  0  0  0
  -25.1182   -3.1061   10.4133 O   0  0  0  0  0  0  0  0  0  0  0  0
  -20.5375   -2.4345   14.1174 C   0  0  0  0  0  0  0  0  0  0  0  0
  -19.3518   -2.5007   13.1569 C   0  0  0  0  0  0  0  0  0  0  0  0
  -21.1456   -3.3427   11.5838 C   0  0  0  0  0  0  0  0  0  0  0  0
  -19.7217   -3.3623   11.9776 C   0  0  0  0  0  0  0  0  0  0  0  0
  -22.0503   -2.5906   12.3391 C   0  0  0  0  0  0  0  0  0  0  0  0
  -21.5763   -4.0310   10.4469 C   0  0  0  0  0  0  0  0  0  0  0  0
  -23.3832   -2.4999   11.9361 C   0  0  0  0  0  0  0  0  0  0  0  0
  -22.9148   -3.9529   10.0605 C   0  0  0  0  0  0  0  0  0  0  0  0
  -23.8152   -3.1854   10.8001 C   0  0  0  0  0  0  0  0  0  0  0  0
  -19.8322   -4.8552    9.9095 H   0  0  0  0  0  0  0  0  0  0  0  0
  -25.7236   -2.5910   10.9094 H   0  0  0  0  0  0  0  0  0  0  0  0
  -20.3234   -1.7729   18.9681 O   0  0  0  0  0  0  0  0  0  0  0  0
  -19.3415    0.8023   18.6102 O   0  0  0  0  0  0  0  0  0  0  0  0
  -20.2184   -1.5719   15.3202 C   0  0  0  0  0  0  0  0  0  0  0  0
  -20.4171   -2.0705   16.6072 C   0  0  0  0  0  0  0  0  0  0  0  0
  -19.7265   -0.2794   15.1401 C   0  0  0  0  0  0  0  0  0  0  0  0
  -20.1237   -1.2760   17.7154 C   0  0  0  0  0  0  0  0  0  0  0  0
  -19.4332    0.5151   16.2485 C   0  0  0  0  0  0  0  0  0  0  0  0
  -19.6317    0.0168   17.5360 C   0  0  0  0  0  0  0  0  0  0  0  0
  -20.6541   -2.6424   19.0800 H   0  0  0  0  0  0  0  0  0  0  0  0
  -19.4720    0.4753   19.4786 H   0  0  0  0  0  0  0  0  0  0  0  0
  1  5  1  0  0  0
  1  9  1  0  0  0
  2  8  2  0  0  0
  3 10  1  0  0  0
  4 13  1  0  0  0
 16 21  1  0  0  0
 17 23  1  0  0  0
  5  6  1  0  0  0
  5 18  1  0  0  0
  6  8  1  0  0  0
 18 19  2  0  0  0
 18 20  1  0  0  0
  7  8  1  0  0  0
  7  9  1  0  0  0
  7 10  2  0  0  0
  9 11  2  0  0  0
 10 12  1  0  0  0
 19 21  1  0  0  0
 20 22  2  0  0  0
 11 13  1  0  0  0
 12 13  2  0  0  0
 21 23  2  0  0  0
 22 23  1  0  0  0
  3 14  1  0  0  0
  4 15  1  0  0  0
 16 24  1  0  0  0
 17 25  1  0  0  0
M  END
> <PUBCHEM_COMPOUND_CID>
440735

> <PUBCHEM_CONFORMER_RMSD>
0.6

> <PUBCHEM_CONFORMER_DIVERSEORDER>
1
5
3
12
6
8
9
2
7
11
4
10

> <PUBCHEM_MMFF94_PARTIAL_CHARGES>
30
1 -0.36
10 0.09
11 0.42
12 0.08
13 0.08
14 -0.15
15 -0.15
16 -0.15
17 -0.15
18 0.08
19 0.08
2 -0.57
20 -0.15
21 0.08
25 0.15
26 0.15
27 0.15
28 0.15
29 0.15
3 -0.53
30 0.45
31 0.45
32 0.45
33 0.45
4 -0.53
5 -0.53
6 -0.53
7 0.42
8 0.06
9 -0.14

> <PUBCHEM_EFFECTIVE_ROTOR_COUNT>
1.6

> <PUBCHEM_PHARMACOPHORE_FEATURES>
9
1 1 acceptor
1 2 acceptor
1 3 donor
1 4 donor
1 5 donor
1 6 donor
6 1 7 8 10 11 12 rings
6 10 12 13 16 17 18 rings
6 9 14 15 19 20 21 rings

> <PUBCHEM_HEAVY_ATOM_COUNT>
21

> <PUBCHEM_ATOM_DEF_STEREO_COUNT>
1

> <PUBCHEM_ATOM_UDEF_STEREO_COUNT>
0

> <PUBCHEM_BOND_DEF_STEREO_COUNT>
0

> <PUBCHEM_BOND_UDEF_STEREO_COUNT>
0

> <PUBCHEM_ISOTOPIC_ATOM_COUNT>
0

> <PUBCHEM_COMPONENT_COUNT>
1

> <PUBCHEM_CACTVS_TAUTO_COUNT>
210

> <PUBCHEM_CONFORMER_ID>
0006B99F00000001

> <PUBCHEM_MMFF94_ENERGY>
59.3348

> <PUBCHEM_FEATURE_SELFOVERLAP>
45.706

> <PUBCHEM_SHAPE_FINGERPRINT>
10411042 1 18193840345656972458
10622 236 17915994985135910311
10912923 1 17704075100980585555
11471102 20 18408887360437875824
11796584 16 16443339837330519890
12107183 9 17839475392528231841
12236239 1 17846502547698529897
12403259 415 17603302657366984853
12553582 1 18339931424372457054
12616971 3 18131069316493766895
13134695 92 18410012139237220932
13140716 1 18123470755117485464
13167823 11 18060421313415870895
13533116 47 18272370884310252635
13544653 18 18335707096160682412
13760787 5 18342737412189807143
13862211 1 18337954490039983666
14386348 63 17749112205529776673
15196674 1 18337955597286782848
15788980 27 18343580716259964887
15848702 151 18412266108008994151
15961568 22 15936981875881220316
17349148 13 17988926669305114007
17357779 13 18114174216278649605
1813 80 18199764560881650630
18222031 100 18270960146673261878
200 152 18343863312365636145
20028762 73 18202280269220032478
20645477 70 18334294270932086002
21033648 29 17822561789984333989
21065201 7 16370725937299973755
21267235 1 18340495478264387710
21641784 216 17969243169744018604
221357 26 18260822679688181229
221490 88 18262807400612090035
22224240 67 18200583826737816768
22646028 1 17989486320802545827
23175994 123 18040722459093184965
23402539 116 18340206263213232338
23557571 272 16950561095136951597
23559900 14 17167860829567015978
23596394 208 17967245377883822595
2871803 45 18114182991128709714
314194 84 18342455937034105566
33824 294 18408885157446479880
345986 75 18058727992668531098
34797466 226 16588320391995792254
46194498 28 17458911547401313933
474 4 18126846225370418952
5104073 3 18340491066778990265
5281201 14 17822012003736182717
573450 72 17132116827560609323
602551 16 15267054895606394037
7471813 234 18060133236927129873
77492 1 17775010115379898801
7970288 3 18266178323070170050
9981440 41 17335605896518103553

> <PUBCHEM_SHAPE_MULTIPOLES>
396.95
11.18
2.12
1.11
6.8
0.3
0.1
-3.77
0.55
-3.9
0.11
1.88
-0.09
-0.13

> <PUBCHEM_SHAPE_SELFOVERLAP>
882.864

> <PUBCHEM_SHAPE_VOLUME>
210.9

> <PUBCHEM_COORDINATE_TYPE>
2
5
10

> <minimizedAffinity>
-7.17541

> <CNNscore>
0.3508211672

> <CNNaffinity>
4.3829107285

> <CNN_VS>
1.5376178026

> <CNNaffinity_variance>
0.1193559542

$$$$
440735


 25 27  0  0  0  0  0  0  0  0999 V2000
  -23.2418   -3.6291   11.3893 O   0  0  0  0  0  0  0  0  0  0  0  0
  -19.5247   -5.1200   12.2789 O   0  0  0  0  0  0  0  0  0  0  0  0
  -18.7548   -2.7480   13.0294 O   0  0  0  0  0  0  0  0  0  0  0  0
  -22.0168    0.6980   12.8931 O   0  0  0  0  0  0  0  0  0  0  0  0
  -22.7121   -4.7556   10.6729 C   0  0  0  0  0  0  0  0  0  0  0  0
  -21.7669   -5.5700   11.5539 C   0  0  0  0  0  0  0  0  0  0  0  0
  -20.9738   -3.2575   12.2051 C   0  0  0  0  0  0  0  0  0  0  0  0
  -20.6392   -4.6841   12.0158 C   0  0  0  0  0  0  0  0  0  0  0  0
  -22.2648   -2.8150   11.9016 C   0  0  0  0  0  0  0  0  0  0  0  0
  -20.0265   -2.3697   12.7213 C   0  0  0  0  0  0  0  0  0  0  0  0
  -22.6187   -1.4878   12.1472 C   0  0  0  0  0  0  0  0  0  0  0  0
  -20.3806   -1.0388   12.9456 C   0  0  0  0  0  0  0  0  0  0  0  0
  -21.6747   -0.5997   12.6640 C   0  0  0  0  0  0  0  0  0  0  0  0
  -18.4831   -3.6341   12.8915 H   0  0  0  0  0  0  0  0  0  0  0  0
  -22.8856    0.9938   12.7043 H   0  0  0  0  0  0  0  0  0  0  0  0
  -26.3679   -7.9015   11.5395 O   0  0  0  0  0  0  0  0  0  0  0  0
  -27.0423   -7.9171    8.8435 O   0  0  0  0  0  0  0  0  0  0  0  0
  -23.8702   -5.6013   10.1870 C   0  0  0  0  0  0  0  0  0  0  0  0
  -24.5983   -6.3718   11.0930 C   0  0  0  0  0  0  0  0  0  0  0  0
  -24.2077   -5.6095    8.8339 C   0  0  0  0  0  0  0  0  0  0  0  0
  -25.6648   -7.1513   10.6457 C   0  0  0  0  0  0  0  0  0  0  0  0
  -25.2743   -6.3892    8.3866 C   0  0  0  0  0  0  0  0  0  0  0  0
  -26.0028   -7.1600    9.2924 C   0  0  0  0  0  0  0  0  0  0  0  0
  -26.1344   -7.8901   12.4468 H   0  0  0  0  0  0  0  0  0  0  0  0
  -27.5368   -8.4379    9.4453 H   0  0  0  0  0  0  0  0  0  0  0  0
  1  5  1  0  0  0
  1  9  1  0  0  0
  2  8  2  0  0  0
  3 10  1  0  0  0
  4 13  1  0  0  0
 16 21  1  0  0  0
 17 23  1  0  0  0
  5  6  1  0  0  0
  5 18  1  0  0  0
  6  8  1  0  0  0
 18 19  2  0  0  0
 18 20  1  0  0  0
  7  8  1  0  0  0
  7  9  1  0  0  0
  7 10  2  0  0  0
  9 11  2  0  0  0
 10 12  1  0  0  0
 19 21  1  0  0  0
 20 22  2  0  0  0
 11 13  1  0  0  0
 12 13  2  0  0  0
 21 23  2  0  0  0
 22 23  1  0  0  0
  3 14  1  0  0  0
  4 15  1  0  0  0
 16 24  1  0  0  0
 17 25  1  0  0  0
M  END
> <PUBCHEM_COMPOUND_CID>
440735

> <PUBCHEM_CONFORMER_RMSD>
0.6

> <PUBCHEM_CONFORMER_DIVERSEORDER>
1
5
3
12
6
8
9
2
7
11
4
10

> <PUBCHEM_MMFF94_PARTIAL_CHARGES>
30
1 -0.36
10 0.09
11 0.42
12 0.08
13 0.08
14 -0.15
15 -0.15
16 -0.15
17 -0.15
18 0.08
19 0.08
2 -0.57
20 -0.15
21 0.08
25 0.15
26 0.15
27 0.15
28 0.15
29 0.15
3 -0.53
30 0.45
31 0.45
32 0.45
33 0.45
4 -0.53
5 -0.53
6 -0.53
7 0.42
8 0.06
9 -0.14

> <PUBCHEM_EFFECTIVE_ROTOR_COUNT>
1.6

> <PUBCHEM_PHARMACOPHORE_FEATURES>
9
1 1 acceptor
1 2 acceptor
1 3 donor
1 4 donor
1 5 donor
1 6 donor
6 1 7 8 10 11 12 rings
6 10 12 13 16 17 18 rings
6 9 14 15 19 20 21 rings

> <PUBCHEM_HEAVY_ATOM_COUNT>
21

> <PUBCHEM_ATOM_DEF_STEREO_COUNT>
1

> <PUBCHEM_ATOM_UDEF_STEREO_COUNT>
0

> <PUBCHEM_BOND_DEF_STEREO_COUNT>
0

> <PUBCHEM_BOND_UDEF_STEREO_COUNT>
0

> <PUBCHEM_ISOTOPIC_ATOM_COUNT>
0

> <PUBCHEM_COMPONENT_COUNT>
1

> <PUBCHEM_CACTVS_TAUTO_COUNT>
210

> <PUBCHEM_CONFORMER_ID>
0006B99F00000001

> <PUBCHEM_MMFF94_ENERGY>
59.3348

> <PUBCHEM_FEATURE_SELFOVERLAP>
45.706

> <PUBCHEM_SHAPE_FINGERPRINT>
10411042 1 18193840345656972458
10622 236 17915994985135910311
10912923 1 17704075100980585555
11471102 20 18408887360437875824
11796584 16 16443339837330519890
12107183 9 17839475392528231841
12236239 1 17846502547698529897
12403259 415 17603302657366984853
12553582 1 18339931424372457054
12616971 3 18131069316493766895
13134695 92 18410012139237220932
13140716 1 18123470755117485464
13167823 11 18060421313415870895
13533116 47 18272370884310252635
13544653 18 18335707096160682412
13760787 5 18342737412189807143
13862211 1 18337954490039983666
14386348 63 17749112205529776673
15196674 1 18337955597286782848
15788980 27 18343580716259964887
15848702 151 18412266108008994151
15961568 22 15936981875881220316
17349148 13 17988926669305114007
17357779 13 18114174216278649605
1813 80 18199764560881650630
18222031 100 18270960146673261878
200 152 18343863312365636145
20028762 73 18202280269220032478
20645477 70 18334294270932086002
21033648 29 17822561789984333989
21065201 7 16370725937299973755
21267235 1 18340495478264387710
21641784 216 17969243169744018604
221357 26 18260822679688181229
221490 88 18262807400612090035
22224240 67 18200583826737816768
22646028 1 17989486320802545827
23175994 123 18040722459093184965
23402539 116 18340206263213232338
23557571 272 16950561095136951597
23559900 14 17167860829567015978
23596394 208 17967245377883822595
2871803 45 18114182991128709714
314194 84 18342455937034105566
33824 294 18408885157446479880
345986 75 18058727992668531098
34797466 226 16588320391995792254
46194498 28 17458911547401313933
474 4 18126846225370418952
5104073 3 18340491066778990265
5281201 14 17822012003736182717
573450 72 17132116827560609323
602551 16 15267054895606394037
7471813 234 18060133236927129873
77492 1 17775010115379898801
7970288 3 18266178323070170050
9981440 41 17335605896518103553

> <PUBCHEM_SHAPE_MULTIPOLES>
396.95
11.18
2.12
1.11
6.8
0.3
0.1
-3.77
0.55
-3.9
0.11
1.88
-0.09
-0.13

> <PUBCHEM_SHAPE_SELFOVERLAP>
882.864

> <PUBCHEM_SHAPE_VOLUME>
210.9

> <PUBCHEM_COORDINATE_TYPE>
2
5
10

> <minimizedAffinity>
-5.40819

> <CNNscore>
0.3203466237

> <CNNaffinity>
4.2263355255

> <CNN_VS>
1.3538923264

> <CNNaffinity_variance>
0.0338153020

$$$$
440735


 25 27  0  0  0  0  0  0  0  0999 V2000
  -20.2404   -2.1510   11.8016 O   0  0  0  0  0  0  0  0  0  0  0  0
  -16.7613   -3.0976    9.8443 O   0  0  0  0  0  0  0  0  0  0  0  0
  -15.8067   -0.7402   10.4048 O   0  0  0  0  0  0  0  0  0  0  0  0
  -18.5488    2.1029   13.0377 O   0  0  0  0  0  0  0  0  0  0  0  0
  -20.2445   -3.0770   10.7037 C   0  0  0  0  0  0  0  0  0  0  0  0
  -18.9153   -3.8237   10.6116 C   0  0  0  0  0  0  0  0  0  0  0  0
  -18.0043   -1.5084   11.0707 C   0  0  0  0  0  0  0  0  0  0  0  0
  -17.8016   -2.8251   10.4317 C   0  0  0  0  0  0  0  0  0  0  0  0
  -19.2054   -1.2541   11.7394 C   0  0  0  0  0  0  0  0  0  0  0  0
  -16.9930   -0.5448   11.0450 C   0  0  0  0  0  0  0  0  0  0  0  0
  -19.3815   -0.0448   12.4131 C   0  0  0  0  0  0  0  0  0  0  0  0
  -17.1832    0.6707   11.7034 C   0  0  0  0  0  0  0  0  0  0  0  0
  -18.3723    0.9184   12.3899 C   0  0  0  0  0  0  0  0  0  0  0  0
  -15.6453   -1.5448    9.9525 H   0  0  0  0  0  0  0  0  0  0  0  0
  -19.3470    2.2702   13.4990 H   0  0  0  0  0  0  0  0  0  0  0  0
  -22.2809   -7.4891   10.0724 O   0  0  0  0  0  0  0  0  0  0  0  0
  -24.5703   -6.6650   11.4150 O   0  0  0  0  0  0  0  0  0  0  0  0
  -21.3989   -4.0383   10.8926 C   0  0  0  0  0  0  0  0  0  0  0  0
  -21.3124   -5.3373   10.3929 C   0  0  0  0  0  0  0  0  0  0  0  0
  -22.5480   -3.6240   11.5656 C   0  0  0  0  0  0  0  0  0  0  0  0
  -22.3757   -6.2231   10.5663 C   0  0  0  0  0  0  0  0  0  0  0  0
  -23.6114   -4.5099   11.7390 C   0  0  0  0  0  0  0  0  0  0  0  0
  -23.5253   -5.8093   11.2394 C   0  0  0  0  0  0  0  0  0  0  0  0
  -21.5052   -7.7592    9.6215 H   0  0  0  0  0  0  0  0  0  0  0  0
  -24.5206   -7.5396   11.0825 H   0  0  0  0  0  0  0  0  0  0  0  0
  1  5  1  0  0  0
  1  9  1  0  0  0
  2  8  2  0  0  0
  3 10  1  0  0  0
  4 13  1  0  0  0
 16 21  1  0  0  0
 17 23  1  0  0  0
  5  6  1  0  0  0
  5 18  1  0  0  0
  6  8  1  0  0  0
 18 19  2  0  0  0
 18 20  1  0  0  0
  7  8  1  0  0  0
  7  9  1  0  0  0
  7 10  2  0  0  0
  9 11  2  0  0  0
 10 12  1  0  0  0
 19 21  1  0  0  0
 20 22  2  0  0  0
 11 13  1  0  0  0
 12 13  2  0  0  0
 21 23  2  0  0  0
 22 23  1  0  0  0
  3 14  1  0  0  0
  4 15  1  0  0  0
 16 24  1  0  0  0
 17 25  1  0  0  0
M  END
> <PUBCHEM_COMPOUND_CID>
440735

> <PUBCHEM_CONFORMER_RMSD>
0.6

> <PUBCHEM_CONFORMER_DIVERSEORDER>
1
5
3
12
6
8
9
2
7
11
4
10

> <PUBCHEM_MMFF94_PARTIAL_CHARGES>
30
1 -0.36
10 0.09
11 0.42
12 0.08
13 0.08
14 -0.15
15 -0.15
16 -0.15
17 -0.15
18 0.08
19 0.08
2 -0.57
20 -0.15
21 0.08
25 0.15
26 0.15
27 0.15
28 0.15
29 0.15
3 -0.53
30 0.45
31 0.45
32 0.45
33 0.45
4 -0.53
5 -0.53
6 -0.53
7 0.42
8 0.06
9 -0.14

> <PUBCHEM_EFFECTIVE_ROTOR_COUNT>
1.6

> <PUBCHEM_PHARMACOPHORE_FEATURES>
9
1 1 acceptor
1 2 acceptor
1 3 donor
1 4 donor
1 5 donor
1 6 donor
6 1 7 8 10 11 12 rings
6 10 12 13 16 17 18 rings
6 9 14 15 19 20 21 rings

> <PUBCHEM_HEAVY_ATOM_COUNT>
21

> <PUBCHEM_ATOM_DEF_STEREO_COUNT>
1

> <PUBCHEM_ATOM_UDEF_STEREO_COUNT>
0

> <PUBCHEM_BOND_DEF_STEREO_COUNT>
0

> <PUBCHEM_BOND_UDEF_STEREO_COUNT>
0

> <PUBCHEM_ISOTOPIC_ATOM_COUNT>
0

> <PUBCHEM_COMPONENT_COUNT>
1

> <PUBCHEM_CACTVS_TAUTO_COUNT>
210

> <PUBCHEM_CONFORMER_ID>
0006B99F00000001

> <PUBCHEM_MMFF94_ENERGY>
59.3348

> <PUBCHEM_FEATURE_SELFOVERLAP>
45.706

> <PUBCHEM_SHAPE_FINGERPRINT>
10411042 1 18193840345656972458
10622 236 17915994985135910311
10912923 1 17704075100980585555
11471102 20 18408887360437875824
11796584 16 16443339837330519890
12107183 9 17839475392528231841
12236239 1 17846502547698529897
12403259 415 17603302657366984853
12553582 1 18339931424372457054
12616971 3 18131069316493766895
13134695 92 18410012139237220932
13140716 1 18123470755117485464
13167823 11 18060421313415870895
13533116 47 18272370884310252635
13544653 18 18335707096160682412
13760787 5 18342737412189807143
13862211 1 18337954490039983666
14386348 63 17749112205529776673
15196674 1 18337955597286782848
15788980 27 18343580716259964887
15848702 151 18412266108008994151
15961568 22 15936981875881220316
17349148 13 17988926669305114007
17357779 13 18114174216278649605
1813 80 18199764560881650630
18222031 100 18270960146673261878
200 152 18343863312365636145
20028762 73 18202280269220032478
20645477 70 18334294270932086002
21033648 29 17822561789984333989
21065201 7 16370725937299973755
21267235 1 18340495478264387710
21641784 216 17969243169744018604
221357 26 18260822679688181229
221490 88 18262807400612090035
22224240 67 18200583826737816768
22646028 1 17989486320802545827
23175994 123 18040722459093184965
23402539 116 18340206263213232338
23557571 272 16950561095136951597
23559900 14 17167860829567015978
23596394 208 17967245377883822595
2871803 45 18114182991128709714
314194 84 18342455937034105566
33824 294 18408885157446479880
345986 75 18058727992668531098
34797466 226 16588320391995792254
46194498 28 17458911547401313933
474 4 18126846225370418952
5104073 3 18340491066778990265
5281201 14 17822012003736182717
573450 72 17132116827560609323
602551 16 15267054895606394037
7471813 234 18060133236927129873
77492 1 17775010115379898801
7970288 3 18266178323070170050
9981440 41 17335605896518103553

> <PUBCHEM_SHAPE_MULTIPOLES>
396.95
11.18
2.12
1.11
6.8
0.3
0.1
-3.77
0.55
-3.9
0.11
1.88
-0.09
-0.13

> <PUBCHEM_SHAPE_SELFOVERLAP>
882.864

> <PUBCHEM_SHAPE_VOLUME>
210.9

> <PUBCHEM_COORDINATE_TYPE>
2
5
10

> <minimizedAffinity>
-7.53574

> <CNNscore>
0.3135594428

> <CNNaffinity>
4.4917383194

> <CNN_VS>
1.4084270000

> <CNNaffinity_variance>
0.3580887914

$$$$
440735


 25 27  0  0  0  0  0  0  0  0999 V2000
  -24.1478   -3.4213   11.2087 O   0  0  0  0  0  0  0  0  0  0  0  0
  -27.4546   -5.8343   10.9374 O   0  0  0  0  0  0  0  0  0  0  0  0
  -25.9782   -7.7450    9.9618 O   0  0  0  0  0  0  0  0  0  0  0  0
  -21.3241   -6.8789    9.6093 O   0  0  0  0  0  0  0  0  0  0  0  0
  -25.4526   -2.8578   11.0023 C   0  0  0  0  0  0  0  0  0  0  0  0
  -26.5334   -3.7320   11.6354 C   0  0  0  0  0  0  0  0  0  0  0  0
  -25.1321   -5.5695   10.6054 C   0  0  0  0  0  0  0  0  0  0  0  0
  -26.4712   -5.1088   11.0270 C   0  0  0  0  0  0  0  0  0  0  0  0
  -24.0412   -4.7058   10.7413 C   0  0  0  0  0  0  0  0  0  0  0  0
  -24.9495   -6.8659   10.1176 C   0  0  0  0  0  0  0  0  0  0  0  0
  -22.7588   -5.1523   10.4198 C   0  0  0  0  0  0  0  0  0  0  0  0
  -23.6674   -7.2998    9.7785 C   0  0  0  0  0  0  0  0  0  0  0  0
  -22.5739   -6.4470    9.9337 C   0  0  0  0  0  0  0  0  0  0  0  0
  -26.8522   -7.4869   10.1798 H   0  0  0  0  0  0  0  0  0  0  0  0
  -20.5892   -6.3070    9.7132 H   0  0  0  0  0  0  0  0  0  0  0  0
  -24.1135    1.8536   10.8545 O   0  0  0  0  0  0  0  0  0  0  0  0
  -25.5179    2.3642   13.1976 O   0  0  0  0  0  0  0  0  0  0  0  0
  -25.4686   -1.4610   11.5865 C   0  0  0  0  0  0  0  0  0  0  0  0
  -24.7786   -0.4311   10.9479 C   0  0  0  0  0  0  0  0  0  0  0  0
  -26.1727   -1.2055   12.7629 C   0  0  0  0  0  0  0  0  0  0  0  0
  -24.7926    0.8556   11.4859 C   0  0  0  0  0  0  0  0  0  0  0  0
  -26.1867    0.0814   13.3009 C   0  0  0  0  0  0  0  0  0  0  0  0
  -25.4967    1.1118   12.6625 C   0  0  0  0  0  0  0  0  0  0  0  0
  -23.6431    1.6732   10.0645 H   0  0  0  0  0  0  0  0  0  0  0  0
  -25.0571    3.0621   12.7751 H   0  0  0  0  0  0  0  0  0  0  0  0
  1  5  1  0  0  0
  1  9  1  0  0  0
  2  8  2  0  0  0
  3 10  1  0  0  0
  4 13  1  0  0  0
 16 21  1  0  0  0
 17 23  1  0  0  0
  5  6  1  0  0  0
  5 18  1  0  0  0
  6  8  1  0  0  0
 18 19  2  0  0  0
 18 20  1  0  0  0
  7  8  1  0  0  0
  7  9  1  0  0  0
  7 10  2  0  0  0
  9 11  2  0  0  0
 10 12  1  0  0  0
 19 21  1  0  0  0
 20 22  2  0  0  0
 11 13  1  0  0  0
 12 13  2  0  0  0
 21 23  2  0  0  0
 22 23  1  0  0  0
  3 14  1  0  0  0
  4 15  1  0  0  0
 16 24  1  0  0  0
 17 25  1  0  0  0
M  END
> <PUBCHEM_COMPOUND_CID>
440735

> <PUBCHEM_CONFORMER_RMSD>
0.6

> <PUBCHEM_CONFORMER_DIVERSEORDER>
1
5
3
12
6
8
9
2
7
11
4
10

> <PUBCHEM_MMFF94_PARTIAL_CHARGES>
30
1 -0.36
10 0.09
11 0.42
12 0.08
13 0.08
14 -0.15
15 -0.15
16 -0.15
17 -0.15
18 0.08
19 0.08
2 -0.57
20 -0.15
21 0.08
25 0.15
26 0.15
27 0.15
28 0.15
29 0.15
3 -0.53
30 0.45
31 0.45
32 0.45
33 0.45
4 -0.53
5 -0.53
6 -0.53
7 0.42
8 0.06
9 -0.14

> <PUBCHEM_EFFECTIVE_ROTOR_COUNT>
1.6

> <PUBCHEM_PHARMACOPHORE_FEATURES>
9
1 1 acceptor
1 2 acceptor
1 3 donor
1 4 donor
1 5 donor
1 6 donor
6 1 7 8 10 11 12 rings
6 10 12 13 16 17 18 rings
6 9 14 15 19 20 21 rings

> <PUBCHEM_HEAVY_ATOM_COUNT>
21

> <PUBCHEM_ATOM_DEF_STEREO_COUNT>
1

> <PUBCHEM_ATOM_UDEF_STEREO_COUNT>
0

> <PUBCHEM_BOND_DEF_STEREO_COUNT>
0

> <PUBCHEM_BOND_UDEF_STEREO_COUNT>
0

> <PUBCHEM_ISOTOPIC_ATOM_COUNT>
0

> <PUBCHEM_COMPONENT_COUNT>
1

> <PUBCHEM_CACTVS_TAUTO_COUNT>
210

> <PUBCHEM_CONFORMER_ID>
0006B99F00000001

> <PUBCHEM_MMFF94_ENERGY>
59.3348

> <PUBCHEM_FEATURE_SELFOVERLAP>
45.706

> <PUBCHEM_SHAPE_FINGERPRINT>
10411042 1 18193840345656972458
10622 236 17915994985135910311
10912923 1 17704075100980585555
11471102 20 18408887360437875824
11796584 16 16443339837330519890
12107183 9 17839475392528231841
12236239 1 17846502547698529897
12403259 415 17603302657366984853
12553582 1 18339931424372457054
12616971 3 18131069316493766895
13134695 92 18410012139237220932
13140716 1 18123470755117485464
13167823 11 18060421313415870895
13533116 47 18272370884310252635
13544653 18 18335707096160682412
13760787 5 18342737412189807143
13862211 1 18337954490039983666
14386348 63 17749112205529776673
15196674 1 18337955597286782848
15788980 27 18343580716259964887
15848702 151 18412266108008994151
15961568 22 15936981875881220316
17349148 13 17988926669305114007
17357779 13 18114174216278649605
1813 80 18199764560881650630
18222031 100 18270960146673261878
200 152 18343863312365636145
20028762 73 18202280269220032478
20645477 70 18334294270932086002
21033648 29 17822561789984333989
21065201 7 16370725937299973755
21267235 1 18340495478264387710
21641784 216 17969243169744018604
221357 26 18260822679688181229
221490 88 18262807400612090035
22224240 67 18200583826737816768
22646028 1 17989486320802545827
23175994 123 18040722459093184965
23402539 116 18340206263213232338
23557571 272 16950561095136951597
23559900 14 17167860829567015978
23596394 208 17967245377883822595
2871803 45 18114182991128709714
314194 84 18342455937034105566
33824 294 18408885157446479880
345986 75 18058727992668531098
34797466 226 16588320391995792254
46194498 28 17458911547401313933
474 4 18126846225370418952
5104073 3 18340491066778990265
5281201 14 17822012003736182717
573450 72 17132116827560609323
602551 16 15267054895606394037
7471813 234 18060133236927129873
77492 1 17775010115379898801
7970288 3 18266178323070170050
9981440 41 17335605896518103553

> <PUBCHEM_SHAPE_MULTIPOLES>
396.95
11.18
2.12
1.11
6.8
0.3
0.1
-3.77
0.55
-3.9
0.11
1.88
-0.09
-0.13

> <PUBCHEM_SHAPE_SELFOVERLAP>
882.864

> <PUBCHEM_SHAPE_VOLUME>
210.9

> <PUBCHEM_COORDINATE_TYPE>
2
5
10

> <minimizedAffinity>
-4.79204

> <CNNscore>
0.3014627099

> <CNNaffinity>
3.8876368999

> <CNN_VS>
1.1719775200

> <CNNaffinity_variance>
0.0980794653

$$$$
440735


 25 27  0  0  0  0  0  0  0  0999 V2000
  -23.3081   -1.3655   11.4047 O   0  0  0  0  0  0  0  0  0  0  0  0
  -27.0654   -2.1896   12.8309 O   0  0  0  0  0  0  0  0  0  0  0  0
  -27.4589    0.3495   13.2565 O   0  0  0  0  0  0  0  0  0  0  0  0
  -23.9684    3.2966   11.9661 O   0  0  0  0  0  0  0  0  0  0  0  0
  -23.5917   -2.6200   12.0437 C   0  0  0  0  0  0  0  0  0  0  0  0
  -25.0495   -3.0246   11.8338 C   0  0  0  0  0  0  0  0  0  0  0  0
  -25.4181   -0.5724   12.3354 C   0  0  0  0  0  0  0  0  0  0  0  0
  -25.9439   -1.9518   12.3984 C   0  0  0  0  0  0  0  0  0  0  0  0
  -24.1366   -0.3553   11.8206 C   0  0  0  0  0  0  0  0  0  0  0  0
  -26.2065    0.5061   12.7443 C   0  0  0  0  0  0  0  0  0  0  0  0
  -23.6558    0.9474   11.6832 C   0  0  0  0  0  0  0  0  0  0  0  0
  -25.7121    1.8053   12.6234 C   0  0  0  0  0  0  0  0  0  0  0  0
  -24.4420    2.0261   12.0897 C   0  0  0  0  0  0  0  0  0  0  0  0
  -27.8222   -0.5090   13.3516 H   0  0  0  0  0  0  0  0  0  0  0  0
  -23.1155    3.4459   11.6078 H   0  0  0  0  0  0  0  0  0  0  0  0
  -22.6534   -6.3370    8.9914 O   0  0  0  0  0  0  0  0  0  0  0  0
  -20.0570   -6.5281    9.9639 O   0  0  0  0  0  0  0  0  0  0  0  0
  -22.6491   -3.6653   11.4856 C   0  0  0  0  0  0  0  0  0  0  0  0
  -23.0845   -4.5316   10.4833 C   0  0  0  0  0  0  0  0  0  0  0  0
  -21.3466   -3.7614   11.9745 C   0  0  0  0  0  0  0  0  0  0  0  0
  -22.2167   -5.4949    9.9692 C   0  0  0  0  0  0  0  0  0  0  0  0
  -20.4788   -4.7249   11.4604 C   0  0  0  0  0  0  0  0  0  0  0  0
  -20.9138   -5.5915   10.4578 C   0  0  0  0  0  0  0  0  0  0  0  0
  -23.5302   -6.2655    8.6686 H   0  0  0  0  0  0  0  0  0  0  0  0
  -20.3412   -7.1142    9.2903 H   0  0  0  0  0  0  0  0  0  0  0  0
  1  5  1  0  0  0
  1  9  1  0  0  0
  2  8  2  0  0  0
  3 10  1  0  0  0
  4 13  1  0  0  0
 16 21  1  0  0  0
 17 23  1  0  0  0
  5  6  1  0  0  0
  5 18  1  0  0  0
  6  8  1  0  0  0
 18 19  2  0  0  0
 18 20  1  0  0  0
  7  8  1  0  0  0
  7  9  1  0  0  0
  7 10  2  0  0  0
  9 11  2  0  0  0
 10 12  1  0  0  0
 19 21  1  0  0  0
 20 22  2  0  0  0
 11 13  1  0  0  0
 12 13  2  0  0  0
 21 23  2  0  0  0
 22 23  1  0  0  0
  3 14  1  0  0  0
  4 15  1  0  0  0
 16 24  1  0  0  0
 17 25  1  0  0  0
M  END
> <PUBCHEM_COMPOUND_CID>
440735

> <PUBCHEM_CONFORMER_RMSD>
0.6

> <PUBCHEM_CONFORMER_DIVERSEORDER>
1
5
3
12
6
8
9
2
7
11
4
10

> <PUBCHEM_MMFF94_PARTIAL_CHARGES>
30
1 -0.36
10 0.09
11 0.42
12 0.08
13 0.08
14 -0.15
15 -0.15
16 -0.15
17 -0.15
18 0.08
19 0.08
2 -0.57
20 -0.15
21 0.08
25 0.15
26 0.15
27 0.15
28 0.15
29 0.15
3 -0.53
30 0.45
31 0.45
32 0.45
33 0.45
4 -0.53
5 -0.53
6 -0.53
7 0.42
8 0.06
9 -0.14

> <PUBCHEM_EFFECTIVE_ROTOR_COUNT>
1.6

> <PUBCHEM_PHARMACOPHORE_FEATURES>
9
1 1 acceptor
1 2 acceptor
1 3 donor
1 4 donor
1 5 donor
1 6 donor
6 1 7 8 10 11 12 rings
6 10 12 13 16 17 18 rings
6 9 14 15 19 20 21 rings

> <PUBCHEM_HEAVY_ATOM_COUNT>
21

> <PUBCHEM_ATOM_DEF_STEREO_COUNT>
1

> <PUBCHEM_ATOM_UDEF_STEREO_COUNT>
0

> <PUBCHEM_BOND_DEF_STEREO_COUNT>
0

> <PUBCHEM_BOND_UDEF_STEREO_COUNT>
0

> <PUBCHEM_ISOTOPIC_ATOM_COUNT>
0

> <PUBCHEM_COMPONENT_COUNT>
1

> <PUBCHEM_CACTVS_TAUTO_COUNT>
210

> <PUBCHEM_CONFORMER_ID>
0006B99F00000001

> <PUBCHEM_MMFF94_ENERGY>
59.3348

> <PUBCHEM_FEATURE_SELFOVERLAP>
45.706

> <PUBCHEM_SHAPE_FINGERPRINT>
10411042 1 18193840345656972458
10622 236 17915994985135910311
10912923 1 17704075100980585555
11471102 20 18408887360437875824
11796584 16 16443339837330519890
12107183 9 17839475392528231841
12236239 1 17846502547698529897
12403259 415 17603302657366984853
12553582 1 18339931424372457054
12616971 3 18131069316493766895
13134695 92 18410012139237220932
13140716 1 18123470755117485464
13167823 11 18060421313415870895
13533116 47 18272370884310252635
13544653 18 18335707096160682412
13760787 5 18342737412189807143
13862211 1 18337954490039983666
14386348 63 17749112205529776673
15196674 1 18337955597286782848
15788980 27 18343580716259964887
15848702 151 18412266108008994151
15961568 22 15936981875881220316
17349148 13 17988926669305114007
17357779 13 18114174216278649605
1813 80 18199764560881650630
18222031 100 18270960146673261878
200 152 18343863312365636145
20028762 73 18202280269220032478
20645477 70 18334294270932086002
21033648 29 17822561789984333989
21065201 7 16370725937299973755
21267235 1 18340495478264387710
21641784 216 17969243169744018604
221357 26 18260822679688181229
221490 88 18262807400612090035
22224240 67 18200583826737816768
22646028 1 17989486320802545827
23175994 123 18040722459093184965
23402539 116 18340206263213232338
23557571 272 16950561095136951597
23559900 14 17167860829567015978
23596394 208 17967245377883822595
2871803 45 18114182991128709714
314194 84 18342455937034105566
33824 294 18408885157446479880
345986 75 18058727992668531098
34797466 226 16588320391995792254
46194498 28 17458911547401313933
474 4 18126846225370418952
5104073 3 18340491066778990265
5281201 14 17822012003736182717
573450 72 17132116827560609323
602551 16 15267054895606394037
7471813 234 18060133236927129873
77492 1 17775010115379898801
7970288 3 18266178323070170050
9981440 41 17335605896518103553

> <PUBCHEM_SHAPE_MULTIPOLES>
396.95
11.18
2.12
1.11
6.8
0.3
0.1
-3.77
0.55
-3.9
0.11
1.88
-0.09
-0.13

> <PUBCHEM_SHAPE_SELFOVERLAP>
882.864

> <PUBCHEM_SHAPE_VOLUME>
210.9

> <PUBCHEM_COORDINATE_TYPE>
2
5
10

> <minimizedAffinity>
-4.47451

> <CNNscore>
0.2932193577

> <CNNaffinity>
3.8694205284

> <CNN_VS>
1.1345889568

> <CNNaffinity_variance>
0.1294993162

$$$$
