440832


 24 26  0  0  0  0  0  0  0  0999 V2000
  -18.0459   -0.0799   13.4814 O   0  0  0  0  0  0  0  0  0  0  0  0
  -20.6576    2.3253   14.5209 O   0  0  0  0  0  0  0  0  0  0  0  0
  -18.5938    3.1560    9.8994 O   0  0  0  0  0  0  0  0  0  0  0  0
  -15.3484   -0.3023    9.5271 O   0  0  0  0  0  0  0  0  0  0  0  0
  -18.3537    1.5727   11.7018 C   0  0  0  0  0  0  0  0  0  0  0  0
  -17.7027    0.4500   12.2234 C   0  0  0  0  0  0  0  0  0  0  0  0
  -19.0019    0.4965   14.1551 C   0  0  0  0  0  0  0  0  0  0  0  0
  -19.3916    2.2128   12.5021 C   0  0  0  0  0  0  0  0  0  0  0  0
  -19.7305    1.7235   13.7017 C   0  0  0  0  0  0  0  0  0  0  0  0
  -17.9880    2.0625   10.4446 C   0  0  0  0  0  0  0  0  0  0  0  0
  -16.6938   -0.1796   11.4934 C   0  0  0  0  0  0  0  0  0  0  0  0
  -16.3322    0.3113   10.2400 C   0  0  0  0  0  0  0  0  0  0  0  0
  -16.9790    1.4304    9.7159 C   0  0  0  0  0  0  0  0  0  0  0  0
  -20.8635    1.9467   15.3529 H   0  0  0  0  0  0  0  0  0  0  0  0
  -19.2738    3.5976   10.3690 H   0  0  0  0  0  0  0  0  0  0  0  0
  -14.9139   -1.0541    9.8792 H   0  0  0  0  0  0  0  0  0  0  0  0
  -20.4397   -1.6751   19.1389 O   0  0  0  0  0  0  0  0  0  0  0  0
  -19.3802   -0.0760   15.4684 C   0  0  0  0  0  0  0  0  0  0  0  0
  -19.7759   -1.4061   15.5512 C   0  0  0  0  0  0  0  0  0  0  0  0
  -19.3363    0.7228   16.6056 C   0  0  0  0  0  0  0  0  0  0  0  0
  -20.1323   -1.9448   16.7875 C   0  0  0  0  0  0  0  0  0  0  0  0
  -19.6926    0.1841   17.8419 C   0  0  0  0  0  0  0  0  0  0  0  0
  -20.0907   -1.1497   17.9330 C   0  0  0  0  0  0  0  0  0  0  0  0
  -20.7071   -2.5710   19.1999 H   0  0  0  0  0  0  0  0  0  0  0  0
  1  6  1  0  0  0
  1  7  2  0  0  0
  2  9  1  0  0  0
  3 10  1  0  0  0
  4 12  1  0  0  0
 17 23  1  0  0  0
  5  6  1  0  0  0
  5  8  1  0  0  0
  5 10  2  0  0  0
  6 11  2  0  0  0
  7 18  1  0  0  0
  7  9  1  0  0  0
 18 19  1  0  0  0
 18 20  2  0  0  0
  8  9  2  0  0  0
 10 13  1  0  0  0
 11 12  1  0  0  0
 12 13  2  0  0  0
 19 21  2  0  0  0
 20 22  1  0  0  0
 21 23  1  0  0  0
 22 23  2  0  0  0
  2 14  1  0  0  0
  3 15  1  0  0  0
  4 16  1  0  0  0
 17 24  1  0  0  0
M  CHG 1   1   1
M  END
> <PUBCHEM_COMPOUND_CID>
440832

> <PUBCHEM_CONFORMER_RMSD>
0.6

> <PUBCHEM_CONFORMER_DIVERSEORDER>
1

> <PUBCHEM_MMFF94_PARTIAL_CHARGES>
31
1 -0.87
10 -0.18
11 0.09
12 0.08
13 -0.15
14 0.08
15 -0.15
16 -0.15
17 -0.15
18 -0.15
19 -0.15
2 -0.53
20 0.08
21 0.15
22 0.15
23 0.15
24 0.15
25 0.15
26 0.15
27 0.15
28 0.45
29 0.45
3 -0.53
30 0.45
31 0.45
4 -0.53
5 -0.53
6 0.03
7 0.92
8 0.85
9 0.09

> <PUBCHEM_EFFECTIVE_ROTOR_COUNT>
1

> <PUBCHEM_PHARMACOPHORE_FEATURES>
7
1 2 donor
1 3 donor
1 4 donor
1 5 donor
6 1 6 7 8 10 11 rings
6 6 7 12 13 14 15 rings
6 9 16 17 18 19 20 rings

> <PUBCHEM_HEAVY_ATOM_COUNT>
20

> <PUBCHEM_ATOM_DEF_STEREO_COUNT>
0

> <PUBCHEM_ATOM_UDEF_STEREO_COUNT>
0

> <PUBCHEM_BOND_DEF_STEREO_COUNT>
0

> <PUBCHEM_BOND_UDEF_STEREO_COUNT>
0

> <PUBCHEM_ISOTOPIC_ATOM_COUNT>
0

> <PUBCHEM_COMPONENT_COUNT>
1

> <PUBCHEM_CACTVS_TAUTO_COUNT>
123

> <PUBCHEM_CONFORMER_ID>
0006BA0000000001

> <PUBCHEM_MMFF94_ENERGY>
64.1635

> <PUBCHEM_FEATURE_SELFOVERLAP>
35.553

> <PUBCHEM_SHAPE_FINGERPRINT>
10912923 1 17775009011462553587
11471102 20 18409167748677038784
11796584 16 17240481420544569243
12107183 9 17768543685485662955
12236239 1 17846501461145643955
12553582 1 18343577443357800446
13134695 92 18341610455779532125
13140716 1 17979914136049333176
13533116 47 18272369793367557795
13544653 18 18335424555900252589
13760787 5 18342454850565180751
13862211 1 18409728418240748554
13955234 65 18340482361581705944
14386348 63 17894914057364563531
14576447 43 18057310893810487135
15196674 1 18410575050330078089
15375358 24 18040714809249801361
15375462 189 18131351929336143784
15961568 22 16009317633729255332
16945 1 18410855503653127024
17357779 13 18260536819185890613
17492 89 18196088850708736206
17844677 252 18335987497527652437
1813 80 18271258139624578164
18186145 218 17458345212702309472
19784866 140 18187362086984764755
200 152 18342172254728573675
20028762 73 18272928298014952126
20281475 54 18273490186830765239
20645477 70 18408037407779475294
21065201 7 16587738728954076179
21267235 1 18412269411092286358
221357 26 18261383447924706301
221490 88 18336547110586721260
23175994 123 18114185241944890821
23402539 116 18340484465482794607
23559900 14 17603871100446616138
25147074 1 18268445563622898672
26918003 58 18113899372588674627
2871803 45 18187082823858124178
312423 11 18339655438379638508
314194 84 18343580776453278247
33824 294 18408320012675222954
345986 75 18059571322276702426
34797466 226 16588034531994622479
34934 24 18268706280842806454
42630746 31 18413107295055907464
46194498 28 17531806986706277821
465052 167 18343306976282523479
474 4 17771053084442772600
5104073 3 18339920416118116080
5281201 14 17894911819312127852
5283173 99 18042677322042983325
573450 72 17203891860000485811
602551 16 15195276581727172325
9709674 26 18335141973038140416

> <PUBCHEM_SHAPE_MULTIPOLES>
382.24
10.91
2.07
0.91
5.55
0.52
0.01
-4.41
0.13
-2.71
-0.02
1.07
-0.09
-0.05

> <PUBCHEM_SHAPE_SELFOVERLAP>
852.11

> <PUBCHEM_SHAPE_VOLUME>
201.8

> <PUBCHEM_COORDINATE_TYPE>
2
5
10

> <minimizedAffinity>
-8.93325

> <CNNscore>
0.6897209883

> <CNNaffinity>
5.2865343094

> <CNN_VS>
3.6462335587

> <CNNaffinity_variance>
0.0536631532

$$$$
440832


 24 26  0  0  0  0  0  0  0  0999 V2000
  -18.4957   -0.4022   14.2787 O   0  0  0  0  0  0  0  0  0  0  0  0
  -20.6681   -3.3947   14.1639 O   0  0  0  0  0  0  0  0  0  0  0  0
  -18.2828   -2.2189    9.7780 O   0  0  0  0  0  0  0  0  0  0  0  0
  -15.8823    1.7377   10.8797 O   0  0  0  0  0  0  0  0  0  0  0  0
  -18.4185   -1.3505   12.0231 C   0  0  0  0  0  0  0  0  0  0  0  0
  -18.0416   -0.3702   12.9468 C   0  0  0  0  0  0  0  0  0  0  0  0
  -19.2758   -1.3817   14.6426 C   0  0  0  0  0  0  0  0  0  0  0  0
  -19.3231   -2.4089   12.4579 C   0  0  0  0  0  0  0  0  0  0  0  0
  -19.7665   -2.4547   13.7207 C   0  0  0  0  0  0  0  0  0  0  0  0
  -17.9384   -1.2865   10.7118 C   0  0  0  0  0  0  0  0  0  0  0  0
  -17.1901    0.6666   12.5631 C   0  0  0  0  0  0  0  0  0  0  0  0
  -16.7130    0.7269   11.2549 C   0  0  0  0  0  0  0  0  0  0  0  0
  -17.0861   -0.2488   10.3305 C   0  0  0  0  0  0  0  0  0  0  0  0
  -20.9505   -3.3883   15.0573 H   0  0  0  0  0  0  0  0  0  0  0  0
  -18.8536   -2.9251   10.0095 H   0  0  0  0  0  0  0  0  0  0  0  0
  -15.6317    2.3931   11.5007 H   0  0  0  0  0  0  0  0  0  0  0  0
  -21.0162   -1.5643   19.9866 O   0  0  0  0  0  0  0  0  0  0  0  0
  -19.7340   -1.4292   16.0508 C   0  0  0  0  0  0  0  0  0  0  0  0
  -18.8861   -1.9257   17.0342 C   0  0  0  0  0  0  0  0  0  0  0  0
  -21.0082   -0.9773   16.3754 C   0  0  0  0  0  0  0  0  0  0  0  0
  -19.3178   -1.9708   18.3598 C   0  0  0  0  0  0  0  0  0  0  0  0
  -21.4399   -1.0222   17.7010 C   0  0  0  0  0  0  0  0  0  0  0  0
  -20.5947   -1.5190   18.6934 C   0  0  0  0  0  0  0  0  0  0  0  0
  -20.4484   -1.8980   20.6530 H   0  0  0  0  0  0  0  0  0  0  0  0
  1  6  1  0  0  0
  1  7  2  0  0  0
  2  9  1  0  0  0
  3 10  1  0  0  0
  4 12  1  0  0  0
 17 23  1  0  0  0
  5  6  1  0  0  0
  5  8  1  0  0  0
  5 10  2  0  0  0
  6 11  2  0  0  0
  7 18  1  0  0  0
  7  9  1  0  0  0
 18 19  1  0  0  0
 18 20  2  0  0  0
  8  9  2  0  0  0
 10 13  1  0  0  0
 11 12  1  0  0  0
 12 13  2  0  0  0
 19 21  2  0  0  0
 20 22  1  0  0  0
 21 23  1  0  0  0
 22 23  2  0  0  0
  2 14  1  0  0  0
  3 15  1  0  0  0
  4 16  1  0  0  0
 17 24  1  0  0  0
M  CHG 1   1   1
M  END
> <PUBCHEM_COMPOUND_CID>
440832

> <PUBCHEM_CONFORMER_RMSD>
0.6

> <PUBCHEM_CONFORMER_DIVERSEORDER>
1

> <PUBCHEM_MMFF94_PARTIAL_CHARGES>
31
1 -0.87
10 -0.18
11 0.09
12 0.08
13 -0.15
14 0.08
15 -0.15
16 -0.15
17 -0.15
18 -0.15
19 -0.15
2 -0.53
20 0.08
21 0.15
22 0.15
23 0.15
24 0.15
25 0.15
26 0.15
27 0.15
28 0.45
29 0.45
3 -0.53
30 0.45
31 0.45
4 -0.53
5 -0.53
6 0.03
7 0.92
8 0.85
9 0.09

> <PUBCHEM_EFFECTIVE_ROTOR_COUNT>
1

> <PUBCHEM_PHARMACOPHORE_FEATURES>
7
1 2 donor
1 3 donor
1 4 donor
1 5 donor
6 1 6 7 8 10 11 rings
6 6 7 12 13 14 15 rings
6 9 16 17 18 19 20 rings

> <PUBCHEM_HEAVY_ATOM_COUNT>
20

> <PUBCHEM_ATOM_DEF_STEREO_COUNT>
0

> <PUBCHEM_ATOM_UDEF_STEREO_COUNT>
0

> <PUBCHEM_BOND_DEF_STEREO_COUNT>
0

> <PUBCHEM_BOND_UDEF_STEREO_COUNT>
0

> <PUBCHEM_ISOTOPIC_ATOM_COUNT>
0

> <PUBCHEM_COMPONENT_COUNT>
1

> <PUBCHEM_CACTVS_TAUTO_COUNT>
123

> <PUBCHEM_CONFORMER_ID>
0006BA0000000001

> <PUBCHEM_MMFF94_ENERGY>
64.1635

> <PUBCHEM_FEATURE_SELFOVERLAP>
35.553

> <PUBCHEM_SHAPE_FINGERPRINT>
10912923 1 17775009011462553587
11471102 20 18409167748677038784
11796584 16 17240481420544569243
12107183 9 17768543685485662955
12236239 1 17846501461145643955
12553582 1 18343577443357800446
13134695 92 18341610455779532125
13140716 1 17979914136049333176
13533116 47 18272369793367557795
13544653 18 18335424555900252589
13760787 5 18342454850565180751
13862211 1 18409728418240748554
13955234 65 18340482361581705944
14386348 63 17894914057364563531
14576447 43 18057310893810487135
15196674 1 18410575050330078089
15375358 24 18040714809249801361
15375462 189 18131351929336143784
15961568 22 16009317633729255332
16945 1 18410855503653127024
17357779 13 18260536819185890613
17492 89 18196088850708736206
17844677 252 18335987497527652437
1813 80 18271258139624578164
18186145 218 17458345212702309472
19784866 140 18187362086984764755
200 152 18342172254728573675
20028762 73 18272928298014952126
20281475 54 18273490186830765239
20645477 70 18408037407779475294
21065201 7 16587738728954076179
21267235 1 18412269411092286358
221357 26 18261383447924706301
221490 88 18336547110586721260
23175994 123 18114185241944890821
23402539 116 18340484465482794607
23559900 14 17603871100446616138
25147074 1 18268445563622898672
26918003 58 18113899372588674627
2871803 45 18187082823858124178
312423 11 18339655438379638508
314194 84 18343580776453278247
33824 294 18408320012675222954
345986 75 18059571322276702426
34797466 226 16588034531994622479
34934 24 18268706280842806454
42630746 31 18413107295055907464
46194498 28 17531806986706277821
465052 167 18343306976282523479
474 4 17771053084442772600
5104073 3 18339920416118116080
5281201 14 17894911819312127852
5283173 99 18042677322042983325
573450 72 17203891860000485811
602551 16 15195276581727172325
9709674 26 18335141973038140416

> <PUBCHEM_SHAPE_MULTIPOLES>
382.24
10.91
2.07
0.91
5.55
0.52
0.01
-4.41
0.13
-2.71
-0.02
1.07
-0.09
-0.05

> <PUBCHEM_SHAPE_SELFOVERLAP>
852.11

> <PUBCHEM_SHAPE_VOLUME>
201.8

> <PUBCHEM_COORDINATE_TYPE>
2
5
10

> <minimizedAffinity>
-6.10608

> <CNNscore>
0.6674649119

> <CNNaffinity>
5.1700191498

> <CNN_VS>
3.4508063793

> <CNNaffinity_variance>
0.1225906387

$$$$
440832


 24 26  0  0  0  0  0  0  0  0999 V2000
  -23.3380   -3.2623   11.5530 O   0  0  0  0  0  0  0  0  0  0  0  0
  -21.3782   -0.9039   13.6227 O   0  0  0  0  0  0  0  0  0  0  0  0
  -18.9124   -5.1646   12.1826 O   0  0  0  0  0  0  0  0  0  0  0  0
  -22.2144   -7.5453    9.7209 O   0  0  0  0  0  0  0  0  0  0  0  0
  -21.0965   -4.1846   11.8964 C   0  0  0  0  0  0  0  0  0  0  0  0
  -22.3890   -4.2859   11.3715 C   0  0  0  0  0  0  0  0  0  0  0  0
  -22.9814   -2.1995   12.2188 C   0  0  0  0  0  0  0  0  0  0  0  0
  -20.7471   -2.9972   12.6681 C   0  0  0  0  0  0  0  0  0  0  0  0
  -21.6374   -2.0139   12.8522 C   0  0  0  0  0  0  0  0  0  0  0  0
  -20.1814   -5.2203   11.6864 C   0  0  0  0  0  0  0  0  0  0  0  0
  -22.7645   -5.4140   10.6412 C   0  0  0  0  0  0  0  0  0  0  0  0
  -21.8493   -6.4446   10.4334 C   0  0  0  0  0  0  0  0  0  0  0  0
  -20.5591   -6.3475   10.9547 C   0  0  0  0  0  0  0  0  0  0  0  0
  -22.0320   -0.2404   13.7233 H   0  0  0  0  0  0  0  0  0  0  0  0
  -18.6350   -4.4186   12.6770 H   0  0  0  0  0  0  0  0  0  0  0  0
  -23.0811   -7.6104    9.3707 H   0  0  0  0  0  0  0  0  0  0  0  0
  -26.7435    1.9302   12.8616 O   0  0  0  0  0  0  0  0  0  0  0  0
  -23.9725   -1.1112   12.3888 C   0  0  0  0  0  0  0  0  0  0  0  0
  -25.0909   -1.3174   13.1882 C   0  0  0  0  0  0  0  0  0  0  0  0
  -23.7747    0.1060   11.7466 C   0  0  0  0  0  0  0  0  0  0  0  0
  -26.0240   -0.2929   13.3478 C   0  0  0  0  0  0  0  0  0  0  0  0
  -24.7076    1.1306   11.9063 C   0  0  0  0  0  0  0  0  0  0  0  0
  -25.8324    0.9312   12.7068 C   0  0  0  0  0  0  0  0  0  0  0  0
  -27.4990    1.7961   13.3994 H   0  0  0  0  0  0  0  0  0  0  0  0
  1  6  1  0  0  0
  1  7  2  0  0  0
  2  9  1  0  0  0
  3 10  1  0  0  0
  4 12  1  0  0  0
 17 23  1  0  0  0
  5  6  1  0  0  0
  5  8  1  0  0  0
  5 10  2  0  0  0
  6 11  2  0  0  0
  7 18  1  0  0  0
  7  9  1  0  0  0
 18 19  1  0  0  0
 18 20  2  0  0  0
  8  9  2  0  0  0
 10 13  1  0  0  0
 11 12  1  0  0  0
 12 13  2  0  0  0
 19 21  2  0  0  0
 20 22  1  0  0  0
 21 23  1  0  0  0
 22 23  2  0  0  0
  2 14  1  0  0  0
  3 15  1  0  0  0
  4 16  1  0  0  0
 17 24  1  0  0  0
M  CHG 1   1   1
M  END
> <PUBCHEM_COMPOUND_CID>
440832

> <PUBCHEM_CONFORMER_RMSD>
0.6

> <PUBCHEM_CONFORMER_DIVERSEORDER>
1

> <PUBCHEM_MMFF94_PARTIAL_CHARGES>
31
1 -0.87
10 -0.18
11 0.09
12 0.08
13 -0.15
14 0.08
15 -0.15
16 -0.15
17 -0.15
18 -0.15
19 -0.15
2 -0.53
20 0.08
21 0.15
22 0.15
23 0.15
24 0.15
25 0.15
26 0.15
27 0.15
28 0.45
29 0.45
3 -0.53
30 0.45
31 0.45
4 -0.53
5 -0.53
6 0.03
7 0.92
8 0.85
9 0.09

> <PUBCHEM_EFFECTIVE_ROTOR_COUNT>
1

> <PUBCHEM_PHARMACOPHORE_FEATURES>
7
1 2 donor
1 3 donor
1 4 donor
1 5 donor
6 1 6 7 8 10 11 rings
6 6 7 12 13 14 15 rings
6 9 16 17 18 19 20 rings

> <PUBCHEM_HEAVY_ATOM_COUNT>
20

> <PUBCHEM_ATOM_DEF_STEREO_COUNT>
0

> <PUBCHEM_ATOM_UDEF_STEREO_COUNT>
0

> <PUBCHEM_BOND_DEF_STEREO_COUNT>
0

> <PUBCHEM_BOND_UDEF_STEREO_COUNT>
0

> <PUBCHEM_ISOTOPIC_ATOM_COUNT>
0

> <PUBCHEM_COMPONENT_COUNT>
1

> <PUBCHEM_CACTVS_TAUTO_COUNT>
123

> <PUBCHEM_CONFORMER_ID>
0006BA0000000001

> <PUBCHEM_MMFF94_ENERGY>
64.1635

> <PUBCHEM_FEATURE_SELFOVERLAP>
35.553

> <PUBCHEM_SHAPE_FINGERPRINT>
10912923 1 17775009011462553587
11471102 20 18409167748677038784
11796584 16 17240481420544569243
12107183 9 17768543685485662955
12236239 1 17846501461145643955
12553582 1 18343577443357800446
13134695 92 18341610455779532125
13140716 1 17979914136049333176
13533116 47 18272369793367557795
13544653 18 18335424555900252589
13760787 5 18342454850565180751
13862211 1 18409728418240748554
13955234 65 18340482361581705944
14386348 63 17894914057364563531
14576447 43 18057310893810487135
15196674 1 18410575050330078089
15375358 24 18040714809249801361
15375462 189 18131351929336143784
15961568 22 16009317633729255332
16945 1 18410855503653127024
17357779 13 18260536819185890613
17492 89 18196088850708736206
17844677 252 18335987497527652437
1813 80 18271258139624578164
18186145 218 17458345212702309472
19784866 140 18187362086984764755
200 152 18342172254728573675
20028762 73 18272928298014952126
20281475 54 18273490186830765239
20645477 70 18408037407779475294
21065201 7 16587738728954076179
21267235 1 18412269411092286358
221357 26 18261383447924706301
221490 88 18336547110586721260
23175994 123 18114185241944890821
23402539 116 18340484465482794607
23559900 14 17603871100446616138
25147074 1 18268445563622898672
26918003 58 18113899372588674627
2871803 45 18187082823858124178
312423 11 18339655438379638508
314194 84 18343580776453278247
33824 294 18408320012675222954
345986 75 18059571322276702426
34797466 226 16588034531994622479
34934 24 18268706280842806454
42630746 31 18413107295055907464
46194498 28 17531806986706277821
465052 167 18343306976282523479
474 4 17771053084442772600
5104073 3 18339920416118116080
5281201 14 17894911819312127852
5283173 99 18042677322042983325
573450 72 17203891860000485811
602551 16 15195276581727172325
9709674 26 18335141973038140416

> <PUBCHEM_SHAPE_MULTIPOLES>
382.24
10.91
2.07
0.91
5.55
0.52
0.01
-4.41
0.13
-2.71
-0.02
1.07
-0.09
-0.05

> <PUBCHEM_SHAPE_SELFOVERLAP>
852.11

> <PUBCHEM_SHAPE_VOLUME>
201.8

> <PUBCHEM_COORDINATE_TYPE>
2
5
10

> <minimizedAffinity>
-5.87659

> <CNNscore>
0.6191020608

> <CNNaffinity>
4.4346747398

> <CNN_VS>
2.7455163002

> <CNNaffinity_variance>
0.0191114806

$$$$
440832


 24 26  0  0  0  0  0  0  0  0999 V2000
  -18.9382   -1.4976   14.1888 O   0  0  0  0  0  0  0  0  0  0  0  0
  -19.2265    1.7737   15.8925 O   0  0  0  0  0  0  0  0  0  0  0  0
  -17.7016    1.9513   10.9985 O   0  0  0  0  0  0  0  0  0  0  0  0
  -17.5336   -2.6364    9.7512 O   0  0  0  0  0  0  0  0  0  0  0  0
  -18.3216    0.2723   12.6139 C   0  0  0  0  0  0  0  0  0  0  0  0
  -18.4917   -1.0818   12.9203 C   0  0  0  0  0  0  0  0  0  0  0  0
  -19.2040   -0.5843   15.0807 C   0  0  0  0  0  0  0  0  0  0  0  0
  -18.5926    1.2623   13.6502 C   0  0  0  0  0  0  0  0  0  0  0  0
  -19.0167    0.8852   14.8632 C   0  0  0  0  0  0  0  0  0  0  0  0
  -17.8841    0.6434   11.3391 C   0  0  0  0  0  0  0  0  0  0  0  0
  -18.2272   -2.0584   11.9594 C   0  0  0  0  0  0  0  0  0  0  0  0
  -17.7916   -1.6846   10.6893 C   0  0  0  0  0  0  0  0  0  0  0  0
  -17.6209   -0.3354   10.3792 C   0  0  0  0  0  0  0  0  0  0  0  0
  -19.5240    1.4641   16.7253 H   0  0  0  0  0  0  0  0  0  0  0  0
  -17.8715    2.6267   11.6253 H   0  0  0  0  0  0  0  0  0  0  0  0
  -17.6482   -3.5427    9.9595 H   0  0  0  0  0  0  0  0  0  0  0  0
  -21.0760   -2.2382   20.1187 O   0  0  0  0  0  0  0  0  0  0  0  0
  -19.6976   -1.0206   16.4079 C   0  0  0  0  0  0  0  0  0  0  0  0
  -20.9968   -0.7124   16.7945 C   0  0  0  0  0  0  0  0  0  0  0  0
  -18.8563   -1.7339   17.2545 C   0  0  0  0  0  0  0  0  0  0  0  0
  -21.4612   -1.1228   18.0441 C   0  0  0  0  0  0  0  0  0  0  0  0
  -19.3207   -2.1445   18.5040 C   0  0  0  0  0  0  0  0  0  0  0  0
  -20.6232   -1.8389   18.8990 C   0  0  0  0  0  0  0  0  0  0  0  0
  -21.9509   -2.0329   20.3838 H   0  0  0  0  0  0  0  0  0  0  0  0
  1  6  1  0  0  0
  1  7  2  0  0  0
  2  9  1  0  0  0
  3 10  1  0  0  0
  4 12  1  0  0  0
 17 23  1  0  0  0
  5  6  1  0  0  0
  5  8  1  0  0  0
  5 10  2  0  0  0
  6 11  2  0  0  0
  7 18  1  0  0  0
  7  9  1  0  0  0
 18 19  1  0  0  0
 18 20  2  0  0  0
  8  9  2  0  0  0
 10 13  1  0  0  0
 11 12  1  0  0  0
 12 13  2  0  0  0
 19 21  2  0  0  0
 20 22  1  0  0  0
 21 23  1  0  0  0
 22 23  2  0  0  0
  2 14  1  0  0  0
  3 15  1  0  0  0
  4 16  1  0  0  0
 17 24  1  0  0  0
M  CHG 1   1   1
M  END
> <PUBCHEM_COMPOUND_CID>
440832

> <PUBCHEM_CONFORMER_RMSD>
0.6

> <PUBCHEM_CONFORMER_DIVERSEORDER>
1

> <PUBCHEM_MMFF94_PARTIAL_CHARGES>
31
1 -0.87
10 -0.18
11 0.09
12 0.08
13 -0.15
14 0.08
15 -0.15
16 -0.15
17 -0.15
18 -0.15
19 -0.15
2 -0.53
20 0.08
21 0.15
22 0.15
23 0.15
24 0.15
25 0.15
26 0.15
27 0.15
28 0.45
29 0.45
3 -0.53
30 0.45
31 0.45
4 -0.53
5 -0.53
6 0.03
7 0.92
8 0.85
9 0.09

> <PUBCHEM_EFFECTIVE_ROTOR_COUNT>
1

> <PUBCHEM_PHARMACOPHORE_FEATURES>
7
1 2 donor
1 3 donor
1 4 donor
1 5 donor
6 1 6 7 8 10 11 rings
6 6 7 12 13 14 15 rings
6 9 16 17 18 19 20 rings

> <PUBCHEM_HEAVY_ATOM_COUNT>
20

> <PUBCHEM_ATOM_DEF_STEREO_COUNT>
0

> <PUBCHEM_ATOM_UDEF_STEREO_COUNT>
0

> <PUBCHEM_BOND_DEF_STEREO_COUNT>
0

> <PUBCHEM_BOND_UDEF_STEREO_COUNT>
0

> <PUBCHEM_ISOTOPIC_ATOM_COUNT>
0

> <PUBCHEM_COMPONENT_COUNT>
1

> <PUBCHEM_CACTVS_TAUTO_COUNT>
123

> <PUBCHEM_CONFORMER_ID>
0006BA0000000001

> <PUBCHEM_MMFF94_ENERGY>
64.1635

> <PUBCHEM_FEATURE_SELFOVERLAP>
35.553

> <PUBCHEM_SHAPE_FINGERPRINT>
10912923 1 17775009011462553587
11471102 20 18409167748677038784
11796584 16 17240481420544569243
12107183 9 17768543685485662955
12236239 1 17846501461145643955
12553582 1 18343577443357800446
13134695 92 18341610455779532125
13140716 1 17979914136049333176
13533116 47 18272369793367557795
13544653 18 18335424555900252589
13760787 5 18342454850565180751
13862211 1 18409728418240748554
13955234 65 18340482361581705944
14386348 63 17894914057364563531
14576447 43 18057310893810487135
15196674 1 18410575050330078089
15375358 24 18040714809249801361
15375462 189 18131351929336143784
15961568 22 16009317633729255332
16945 1 18410855503653127024
17357779 13 18260536819185890613
17492 89 18196088850708736206
17844677 252 18335987497527652437
1813 80 18271258139624578164
18186145 218 17458345212702309472
19784866 140 18187362086984764755
200 152 18342172254728573675
20028762 73 18272928298014952126
20281475 54 18273490186830765239
20645477 70 18408037407779475294
21065201 7 16587738728954076179
21267235 1 18412269411092286358
221357 26 18261383447924706301
221490 88 18336547110586721260
23175994 123 18114185241944890821
23402539 116 18340484465482794607
23559900 14 17603871100446616138
25147074 1 18268445563622898672
26918003 58 18113899372588674627
2871803 45 18187082823858124178
312423 11 18339655438379638508
314194 84 18343580776453278247
33824 294 18408320012675222954
345986 75 18059571322276702426
34797466 226 16588034531994622479
34934 24 18268706280842806454
42630746 31 18413107295055907464
46194498 28 17531806986706277821
465052 167 18343306976282523479
474 4 17771053084442772600
5104073 3 18339920416118116080
5281201 14 17894911819312127852
5283173 99 18042677322042983325
573450 72 17203891860000485811
602551 16 15195276581727172325
9709674 26 18335141973038140416

> <PUBCHEM_SHAPE_MULTIPOLES>
382.24
10.91
2.07
0.91
5.55
0.52
0.01
-4.41
0.13
-2.71
-0.02
1.07
-0.09
-0.05

> <PUBCHEM_SHAPE_SELFOVERLAP>
852.11

> <PUBCHEM_SHAPE_VOLUME>
201.8

> <PUBCHEM_COORDINATE_TYPE>
2
5
10

> <minimizedAffinity>
-7.52886

> <CNNscore>
0.5167587996

> <CNNaffinity>
5.0387725830

> <CNN_VS>
2.6038300991

> <CNNaffinity_variance>
0.0582911000

$$$$
440832


 24 26  0  0  0  0  0  0  0  0999 V2000
  -22.6563   -2.9456   11.7342 O   0  0  0  0  0  0  0  0  0  0  0  0
  -26.1412   -4.0554   11.1768 O   0  0  0  0  0  0  0  0  0  0  0  0
  -22.5086   -7.4655    9.9592 O   0  0  0  0  0  0  0  0  0  0  0  0
  -18.4730   -5.1286   10.8996 O   0  0  0  0  0  0  0  0  0  0  0  0
  -22.6280   -5.2231   10.8369 C   0  0  0  0  0  0  0  0  0  0  0  0
  -21.9562   -4.0815   11.2861 C   0  0  0  0  0  0  0  0  0  0  0  0
  -23.9597   -2.9823   11.7329 C   0  0  0  0  0  0  0  0  0  0  0  0
  -24.0863   -5.2118   10.8144 C   0  0  0  0  0  0  0  0  0  0  0  0
  -24.7693   -4.1396   11.2356 C   0  0  0  0  0  0  0  0  0  0  0  0
  -21.8947   -6.3333   10.4079 C   0  0  0  0  0  0  0  0  0  0  0  0
  -20.5613   -4.0496   11.3072 C   0  0  0  0  0  0  0  0  0  0  0  0
  -19.8336   -5.1586   10.8791 C   0  0  0  0  0  0  0  0  0  0  0  0
  -20.4994   -6.2993   10.4307 C   0  0  0  0  0  0  0  0  0  0  0  0
  -26.5769   -3.2846   11.4834 H   0  0  0  0  0  0  0  0  0  0  0  0
  -23.4440   -7.5128    9.9343 H   0  0  0  0  0  0  0  0  0  0  0  0
  -18.0257   -4.3623   11.2008 H   0  0  0  0  0  0  0  0  0  0  0  0
  -26.7587    1.5195   13.6092 O   0  0  0  0  0  0  0  0  0  0  0  0
  -24.6968   -1.7960   12.2277 C   0  0  0  0  0  0  0  0  0  0  0  0
  -25.4844   -1.9015   13.3683 C   0  0  0  0  0  0  0  0  0  0  0  0
  -24.5941   -0.5885   11.5462 C   0  0  0  0  0  0  0  0  0  0  0  0
  -26.1786   -0.7847   13.8339 C   0  0  0  0  0  0  0  0  0  0  0  0
  -25.2880    0.5283   12.0117 C   0  0  0  0  0  0  0  0  0  0  0  0
  -26.0804    0.4303   13.1556 C   0  0  0  0  0  0  0  0  0  0  0  0
  -27.2909    1.4535   14.3775 H   0  0  0  0  0  0  0  0  0  0  0  0
  1  6  1  0  0  0
  1  7  2  0  0  0
  2  9  1  0  0  0
  3 10  1  0  0  0
  4 12  1  0  0  0
 17 23  1  0  0  0
  5  6  1  0  0  0
  5  8  1  0  0  0
  5 10  2  0  0  0
  6 11  2  0  0  0
  7 18  1  0  0  0
  7  9  1  0  0  0
 18 19  1  0  0  0
 18 20  2  0  0  0
  8  9  2  0  0  0
 10 13  1  0  0  0
 11 12  1  0  0  0
 12 13  2  0  0  0
 19 21  2  0  0  0
 20 22  1  0  0  0
 21 23  1  0  0  0
 22 23  2  0  0  0
  2 14  1  0  0  0
  3 15  1  0  0  0
  4 16  1  0  0  0
 17 24  1  0  0  0
M  CHG 1   1   1
M  END
> <PUBCHEM_COMPOUND_CID>
440832

> <PUBCHEM_CONFORMER_RMSD>
0.6

> <PUBCHEM_CONFORMER_DIVERSEORDER>
1

> <PUBCHEM_MMFF94_PARTIAL_CHARGES>
31
1 -0.87
10 -0.18
11 0.09
12 0.08
13 -0.15
14 0.08
15 -0.15
16 -0.15
17 -0.15
18 -0.15
19 -0.15
2 -0.53
20 0.08
21 0.15
22 0.15
23 0.15
24 0.15
25 0.15
26 0.15
27 0.15
28 0.45
29 0.45
3 -0.53
30 0.45
31 0.45
4 -0.53
5 -0.53
6 0.03
7 0.92
8 0.85
9 0.09

> <PUBCHEM_EFFECTIVE_ROTOR_COUNT>
1

> <PUBCHEM_PHARMACOPHORE_FEATURES>
7
1 2 donor
1 3 donor
1 4 donor
1 5 donor
6 1 6 7 8 10 11 rings
6 6 7 12 13 14 15 rings
6 9 16 17 18 19 20 rings

> <PUBCHEM_HEAVY_ATOM_COUNT>
20

> <PUBCHEM_ATOM_DEF_STEREO_COUNT>
0

> <PUBCHEM_ATOM_UDEF_STEREO_COUNT>
0

> <PUBCHEM_BOND_DEF_STEREO_COUNT>
0

> <PUBCHEM_BOND_UDEF_STEREO_COUNT>
0

> <PUBCHEM_ISOTOPIC_ATOM_COUNT>
0

> <PUBCHEM_COMPONENT_COUNT>
1

> <PUBCHEM_CACTVS_TAUTO_COUNT>
123

> <PUBCHEM_CONFORMER_ID>
0006BA0000000001

> <PUBCHEM_MMFF94_ENERGY>
64.1635

> <PUBCHEM_FEATURE_SELFOVERLAP>
35.553

> <PUBCHEM_SHAPE_FINGERPRINT>
10912923 1 17775009011462553587
11471102 20 18409167748677038784
11796584 16 17240481420544569243
12107183 9 17768543685485662955
12236239 1 17846501461145643955
12553582 1 18343577443357800446
13134695 92 18341610455779532125
13140716 1 17979914136049333176
13533116 47 18272369793367557795
13544653 18 18335424555900252589
13760787 5 18342454850565180751
13862211 1 18409728418240748554
13955234 65 18340482361581705944
14386348 63 17894914057364563531
14576447 43 18057310893810487135
15196674 1 18410575050330078089
15375358 24 18040714809249801361
15375462 189 18131351929336143784
15961568 22 16009317633729255332
16945 1 18410855503653127024
17357779 13 18260536819185890613
17492 89 18196088850708736206
17844677 252 18335987497527652437
1813 80 18271258139624578164
18186145 218 17458345212702309472
19784866 140 18187362086984764755
200 152 18342172254728573675
20028762 73 18272928298014952126
20281475 54 18273490186830765239
20645477 70 18408037407779475294
21065201 7 16587738728954076179
21267235 1 18412269411092286358
221357 26 18261383447924706301
221490 88 18336547110586721260
23175994 123 18114185241944890821
23402539 116 18340484465482794607
23559900 14 17603871100446616138
25147074 1 18268445563622898672
26918003 58 18113899372588674627
2871803 45 18187082823858124178
312423 11 18339655438379638508
314194 84 18343580776453278247
33824 294 18408320012675222954
345986 75 18059571322276702426
34797466 226 16588034531994622479
34934 24 18268706280842806454
42630746 31 18413107295055907464
46194498 28 17531806986706277821
465052 167 18343306976282523479
474 4 17771053084442772600
5104073 3 18339920416118116080
5281201 14 17894911819312127852
5283173 99 18042677322042983325
573450 72 17203891860000485811
602551 16 15195276581727172325
9709674 26 18335141973038140416

> <PUBCHEM_SHAPE_MULTIPOLES>
382.24
10.91
2.07
0.91
5.55
0.52
0.01
-4.41
0.13
-2.71
-0.02
1.07
-0.09
-0.05

> <PUBCHEM_SHAPE_SELFOVERLAP>
852.11

> <PUBCHEM_SHAPE_VOLUME>
201.8

> <PUBCHEM_COORDINATE_TYPE>
2
5
10

> <minimizedAffinity>
-5.62678

> <CNNscore>
0.4348599017

> <CNNaffinity>
4.1551012993

> <CNN_VS>
1.8068869114

> <CNNaffinity_variance>
0.0949084610

$$$$
440832


 24 26  0  0  0  0  0  0  0  0999 V2000
  -23.6160   -4.4176    9.5504 O   0  0  0  0  0  0  0  0  0  0  0  0
  -25.5506   -6.2640   12.1068 O   0  0  0  0  0  0  0  0  0  0  0  0
  -23.5819   -9.1193    8.3281 O   0  0  0  0  0  0  0  0  0  0  0  0
  -21.4256   -5.9088    5.5578 O   0  0  0  0  0  0  0  0  0  0  0  0
  -23.6253   -6.7961    8.9712 C   0  0  0  0  0  0  0  0  0  0  0  0
  -23.2615   -5.4748    8.6915 C   0  0  0  0  0  0  0  0  0  0  0  0
  -24.2893   -4.6983   10.6311 C   0  0  0  0  0  0  0  0  0  0  0  0
  -24.4112   -7.0653   10.1700 C   0  0  0  0  0  0  0  0  0  0  0  0
  -24.7589   -6.0719   10.9981 C   0  0  0  0  0  0  0  0  0  0  0  0
  -23.2460   -7.8181    8.0960 C   0  0  0  0  0  0  0  0  0  0  0  0
  -22.5230   -5.1768    7.5457 C   0  0  0  0  0  0  0  0  0  0  0  0
  -22.1461   -6.1985    6.6756 C   0  0  0  0  0  0  0  0  0  0  0  0
  -22.5065   -7.5176    6.9508 C   0  0  0  0  0  0  0  0  0  0  0  0
  -25.7685   -5.5385   12.6583 H   0  0  0  0  0  0  0  0  0  0  0  0
  -24.0779   -9.3464    9.0899 H   0  0  0  0  0  0  0  0  0  0  0  0
  -21.1835   -5.0227    5.3730 H   0  0  0  0  0  0  0  0  0  0  0  0
  -25.6248   -0.4891   14.1126 O   0  0  0  0  0  0  0  0  0  0  0  0
  -24.6413   -3.5888   11.5480 C   0  0  0  0  0  0  0  0  0  0  0  0
  -23.7098   -2.5908   11.8103 C   0  0  0  0  0  0  0  0  0  0  0  0
  -25.9000   -3.5565   12.1378 C   0  0  0  0  0  0  0  0  0  0  0  0
  -24.0411   -1.5466   12.6738 C   0  0  0  0  0  0  0  0  0  0  0  0
  -26.2315   -2.5123   13.0010 C   0  0  0  0  0  0  0  0  0  0  0  0
  -25.3020   -1.5072   13.2692 C   0  0  0  0  0  0  0  0  0  0  0  0
  -25.0003    0.1860   14.2926 H   0  0  0  0  0  0  0  0  0  0  0  0
  1  6  1  0  0  0
  1  7  2  0  0  0
  2  9  1  0  0  0
  3 10  1  0  0  0
  4 12  1  0  0  0
 17 23  1  0  0  0
  5  6  1  0  0  0
  5  8  1  0  0  0
  5 10  2  0  0  0
  6 11  2  0  0  0
  7 18  1  0  0  0
  7  9  1  0  0  0
 18 19  1  0  0  0
 18 20  2  0  0  0
  8  9  2  0  0  0
 10 13  1  0  0  0
 11 12  1  0  0  0
 12 13  2  0  0  0
 19 21  2  0  0  0
 20 22  1  0  0  0
 21 23  1  0  0  0
 22 23  2  0  0  0
  2 14  1  0  0  0
  3 15  1  0  0  0
  4 16  1  0  0  0
 17 24  1  0  0  0
M  CHG 1   1   1
M  END
> <PUBCHEM_COMPOUND_CID>
440832

> <PUBCHEM_CONFORMER_RMSD>
0.6

> <PUBCHEM_CONFORMER_DIVERSEORDER>
1

> <PUBCHEM_MMFF94_PARTIAL_CHARGES>
31
1 -0.87
10 -0.18
11 0.09
12 0.08
13 -0.15
14 0.08
15 -0.15
16 -0.15
17 -0.15
18 -0.15
19 -0.15
2 -0.53
20 0.08
21 0.15
22 0.15
23 0.15
24 0.15
25 0.15
26 0.15
27 0.15
28 0.45
29 0.45
3 -0.53
30 0.45
31 0.45
4 -0.53
5 -0.53
6 0.03
7 0.92
8 0.85
9 0.09

> <PUBCHEM_EFFECTIVE_ROTOR_COUNT>
1

> <PUBCHEM_PHARMACOPHORE_FEATURES>
7
1 2 donor
1 3 donor
1 4 donor
1 5 donor
6 1 6 7 8 10 11 rings
6 6 7 12 13 14 15 rings
6 9 16 17 18 19 20 rings

> <PUBCHEM_HEAVY_ATOM_COUNT>
20

> <PUBCHEM_ATOM_DEF_STEREO_COUNT>
0

> <PUBCHEM_ATOM_UDEF_STEREO_COUNT>
0

> <PUBCHEM_BOND_DEF_STEREO_COUNT>
0

> <PUBCHEM_BOND_UDEF_STEREO_COUNT>
0

> <PUBCHEM_ISOTOPIC_ATOM_COUNT>
0

> <PUBCHEM_COMPONENT_COUNT>
1

> <PUBCHEM_CACTVS_TAUTO_COUNT>
123

> <PUBCHEM_CONFORMER_ID>
0006BA0000000001

> <PUBCHEM_MMFF94_ENERGY>
64.1635

> <PUBCHEM_FEATURE_SELFOVERLAP>
35.553

> <PUBCHEM_SHAPE_FINGERPRINT>
10912923 1 17775009011462553587
11471102 20 18409167748677038784
11796584 16 17240481420544569243
12107183 9 17768543685485662955
12236239 1 17846501461145643955
12553582 1 18343577443357800446
13134695 92 18341610455779532125
13140716 1 17979914136049333176
13533116 47 18272369793367557795
13544653 18 18335424555900252589
13760787 5 18342454850565180751
13862211 1 18409728418240748554
13955234 65 18340482361581705944
14386348 63 17894914057364563531
14576447 43 18057310893810487135
15196674 1 18410575050330078089
15375358 24 18040714809249801361
15375462 189 18131351929336143784
15961568 22 16009317633729255332
16945 1 18410855503653127024
17357779 13 18260536819185890613
17492 89 18196088850708736206
17844677 252 18335987497527652437
1813 80 18271258139624578164
18186145 218 17458345212702309472
19784866 140 18187362086984764755
200 152 18342172254728573675
20028762 73 18272928298014952126
20281475 54 18273490186830765239
20645477 70 18408037407779475294
21065201 7 16587738728954076179
21267235 1 18412269411092286358
221357 26 18261383447924706301
221490 88 18336547110586721260
23175994 123 18114185241944890821
23402539 116 18340484465482794607
23559900 14 17603871100446616138
25147074 1 18268445563622898672
26918003 58 18113899372588674627
2871803 45 18187082823858124178
312423 11 18339655438379638508
314194 84 18343580776453278247
33824 294 18408320012675222954
345986 75 18059571322276702426
34797466 226 16588034531994622479
34934 24 18268706280842806454
42630746 31 18413107295055907464
46194498 28 17531806986706277821
465052 167 18343306976282523479
474 4 17771053084442772600
5104073 3 18339920416118116080
5281201 14 17894911819312127852
5283173 99 18042677322042983325
573450 72 17203891860000485811
602551 16 15195276581727172325
9709674 26 18335141973038140416

> <PUBCHEM_SHAPE_MULTIPOLES>
382.24
10.91
2.07
0.91
5.55
0.52
0.01
-4.41
0.13
-2.71
-0.02
1.07
-0.09
-0.05

> <PUBCHEM_SHAPE_SELFOVERLAP>
852.11

> <PUBCHEM_SHAPE_VOLUME>
201.8

> <PUBCHEM_COORDINATE_TYPE>
2
5
10

> <minimizedAffinity>
-5.56561

> <CNNscore>
0.3840050101

> <CNNaffinity>
3.9838688374

> <CNN_VS>
1.5298255682

> <CNNaffinity_variance>
0.0803398341

$$$$
440832


 24 26  0  0  0  0  0  0  0  0999 V2000
  -19.4352    1.1330   13.4990 O   0  0  0  0  0  0  0  0  0  0  0  0
  -18.1894   -2.3063   14.0519 O   0  0  0  0  0  0  0  0  0  0  0  0
  -16.9291   -0.1899    9.5531 O   0  0  0  0  0  0  0  0  0  0  0  0
  -19.0305    4.0740    9.7376 O   0  0  0  0  0  0  0  0  0  0  0  0
  -18.1649    0.4250   11.5298 C   0  0  0  0  0  0  0  0  0  0  0  0
  -18.9386    1.3750   12.2045 C   0  0  0  0  0  0  0  0  0  0  0  0
  -19.1475   -0.0038   14.0691 C   0  0  0  0  0  0  0  0  0  0  0  0
  -17.8965   -0.8501   12.1852 C   0  0  0  0  0  0  0  0  0  0  0  0
  -18.3619   -1.0985   13.4161 C   0  0  0  0  0  0  0  0  0  0  0  0
  -17.6841    0.7084   10.2481 C   0  0  0  0  0  0  0  0  0  0  0  0
  -19.2293    2.6001   11.6029 C   0  0  0  0  0  0  0  0  0  0  0  0
  -18.7478    2.8793   10.3251 C   0  0  0  0  0  0  0  0  0  0  0  0
  -17.9755    1.9349    9.6488 C   0  0  0  0  0  0  0  0  0  0  0  0
  -18.5327   -2.4351   14.9142 H   0  0  0  0  0  0  0  0  0  0  0  0
  -16.7199   -1.0201    9.9339 H   0  0  0  0  0  0  0  0  0  0  0  0
  -19.5493    4.7084   10.1919 H   0  0  0  0  0  0  0  0  0  0  0  0
  -21.0504   -0.9352   19.2780 O   0  0  0  0  0  0  0  0  0  0  0  0
  -19.6494   -0.2489   15.4415 C   0  0  0  0  0  0  0  0  0  0  0  0
  -19.4170    0.6925   16.4377 C   0  0  0  0  0  0  0  0  0  0  0  0
  -20.3477   -1.4184   15.7202 C   0  0  0  0  0  0  0  0  0  0  0  0
  -19.8892    0.4615   17.7297 C   0  0  0  0  0  0  0  0  0  0  0  0
  -20.8201   -1.6493   17.0121 C   0  0  0  0  0  0  0  0  0  0  0  0
  -20.5908   -0.7094   18.0171 C   0  0  0  0  0  0  0  0  0  0  0  0
  -20.8963   -0.3038   19.9529 H   0  0  0  0  0  0  0  0  0  0  0  0
  1  6  1  0  0  0
  1  7  2  0  0  0
  2  9  1  0  0  0
  3 10  1  0  0  0
  4 12  1  0  0  0
 17 23  1  0  0  0
  5  6  1  0  0  0
  5  8  1  0  0  0
  5 10  2  0  0  0
  6 11  2  0  0  0
  7 18  1  0  0  0
  7  9  1  0  0  0
 18 19  1  0  0  0
 18 20  2  0  0  0
  8  9  2  0  0  0
 10 13  1  0  0  0
 11 12  1  0  0  0
 12 13  2  0  0  0
 19 21  2  0  0  0
 20 22  1  0  0  0
 21 23  1  0  0  0
 22 23  2  0  0  0
  2 14  1  0  0  0
  3 15  1  0  0  0
  4 16  1  0  0  0
 17 24  1  0  0  0
M  CHG 1   1   1
M  END
> <PUBCHEM_COMPOUND_CID>
440832

> <PUBCHEM_CONFORMER_RMSD>
0.6

> <PUBCHEM_CONFORMER_DIVERSEORDER>
1

> <PUBCHEM_MMFF94_PARTIAL_CHARGES>
31
1 -0.87
10 -0.18
11 0.09
12 0.08
13 -0.15
14 0.08
15 -0.15
16 -0.15
17 -0.15
18 -0.15
19 -0.15
2 -0.53
20 0.08
21 0.15
22 0.15
23 0.15
24 0.15
25 0.15
26 0.15
27 0.15
28 0.45
29 0.45
3 -0.53
30 0.45
31 0.45
4 -0.53
5 -0.53
6 0.03
7 0.92
8 0.85
9 0.09

> <PUBCHEM_EFFECTIVE_ROTOR_COUNT>
1

> <PUBCHEM_PHARMACOPHORE_FEATURES>
7
1 2 donor
1 3 donor
1 4 donor
1 5 donor
6 1 6 7 8 10 11 rings
6 6 7 12 13 14 15 rings
6 9 16 17 18 19 20 rings

> <PUBCHEM_HEAVY_ATOM_COUNT>
20

> <PUBCHEM_ATOM_DEF_STEREO_COUNT>
0

> <PUBCHEM_ATOM_UDEF_STEREO_COUNT>
0

> <PUBCHEM_BOND_DEF_STEREO_COUNT>
0

> <PUBCHEM_BOND_UDEF_STEREO_COUNT>
0

> <PUBCHEM_ISOTOPIC_ATOM_COUNT>
0

> <PUBCHEM_COMPONENT_COUNT>
1

> <PUBCHEM_CACTVS_TAUTO_COUNT>
123

> <PUBCHEM_CONFORMER_ID>
0006BA0000000001

> <PUBCHEM_MMFF94_ENERGY>
64.1635

> <PUBCHEM_FEATURE_SELFOVERLAP>
35.553

> <PUBCHEM_SHAPE_FINGERPRINT>
10912923 1 17775009011462553587
11471102 20 18409167748677038784
11796584 16 17240481420544569243
12107183 9 17768543685485662955
12236239 1 17846501461145643955
12553582 1 18343577443357800446
13134695 92 18341610455779532125
13140716 1 17979914136049333176
13533116 47 18272369793367557795
13544653 18 18335424555900252589
13760787 5 18342454850565180751
13862211 1 18409728418240748554
13955234 65 18340482361581705944
14386348 63 17894914057364563531
14576447 43 18057310893810487135
15196674 1 18410575050330078089
15375358 24 18040714809249801361
15375462 189 18131351929336143784
15961568 22 16009317633729255332
16945 1 18410855503653127024
17357779 13 18260536819185890613
17492 89 18196088850708736206
17844677 252 18335987497527652437
1813 80 18271258139624578164
18186145 218 17458345212702309472
19784866 140 18187362086984764755
200 152 18342172254728573675
20028762 73 18272928298014952126
20281475 54 18273490186830765239
20645477 70 18408037407779475294
21065201 7 16587738728954076179
21267235 1 18412269411092286358
221357 26 18261383447924706301
221490 88 18336547110586721260
23175994 123 18114185241944890821
23402539 116 18340484465482794607
23559900 14 17603871100446616138
25147074 1 18268445563622898672
26918003 58 18113899372588674627
2871803 45 18187082823858124178
312423 11 18339655438379638508
314194 84 18343580776453278247
33824 294 18408320012675222954
345986 75 18059571322276702426
34797466 226 16588034531994622479
34934 24 18268706280842806454
42630746 31 18413107295055907464
46194498 28 17531806986706277821
465052 167 18343306976282523479
474 4 17771053084442772600
5104073 3 18339920416118116080
5281201 14 17894911819312127852
5283173 99 18042677322042983325
573450 72 17203891860000485811
602551 16 15195276581727172325
9709674 26 18335141973038140416

> <PUBCHEM_SHAPE_MULTIPOLES>
382.24
10.91
2.07
0.91
5.55
0.52
0.01
-4.41
0.13
-2.71
-0.02
1.07
-0.09
-0.05

> <PUBCHEM_SHAPE_SELFOVERLAP>
852.11

> <PUBCHEM_SHAPE_VOLUME>
201.8

> <PUBCHEM_COORDINATE_TYPE>
2
5
10

> <minimizedAffinity>
-7.24162

> <CNNscore>
0.3727380037

> <CNNaffinity>
4.8019318581

> <CNN_VS>
1.7898625135

> <CNNaffinity_variance>
0.0548807010

$$$$
440832


 24 26  0  0  0  0  0  0  0  0999 V2000
  -18.8169   -2.6236   10.6216 O   0  0  0  0  0  0  0  0  0  0  0  0
  -21.5458   -2.7616   13.1159 O   0  0  0  0  0  0  0  0  0  0  0  0
  -18.5028    1.3584   13.3869 O   0  0  0  0  0  0  0  0  0  0  0  0
  -15.3226    0.5828    9.9349 O   0  0  0  0  0  0  0  0  0  0  0  0
  -18.6947   -0.6319   12.0398 C   0  0  0  0  0  0  0  0  0  0  0  0
  -18.1959   -1.4169   10.9952 C   0  0  0  0  0  0  0  0  0  0  0  0
  -19.8860   -2.9950   11.2691 C   0  0  0  0  0  0  0  0  0  0  0  0
  -19.8702   -1.0999   12.7654 C   0  0  0  0  0  0  0  0  0  0  0  0
  -20.4734   -2.2461   12.4250 C   0  0  0  0  0  0  0  0  0  0  0  0
  -18.0527    0.5642   12.3737 C   0  0  0  0  0  0  0  0  0  0  0  0
  -17.0639   -1.0093   10.2884 C   0  0  0  0  0  0  0  0  0  0  0  0
  -16.4267    0.1841   10.6238 C   0  0  0  0  0  0  0  0  0  0  0  0
  -16.9209    0.9703   11.6647 C   0  0  0  0  0  0  0  0  0  0  0  0
  -21.9364   -3.5677   12.8411 H   0  0  0  0  0  0  0  0  0  0  0  0
  -19.2606    1.1075   13.8776 H   0  0  0  0  0  0  0  0  0  0  0  0
  -14.9907    0.0547    9.2357 H   0  0  0  0  0  0  0  0  0  0  0  0
  -22.4230   -7.7678    9.7183 O   0  0  0  0  0  0  0  0  0  0  0  0
  -20.5542   -4.2526   10.8599 C   0  0  0  0  0  0  0  0  0  0  0  0
  -21.6307   -4.2058    9.9816 C   0  0  0  0  0  0  0  0  0  0  0  0
  -20.0985   -5.4677   11.3587 C   0  0  0  0  0  0  0  0  0  0  0  0
  -22.2599   -5.3898    9.5968 C   0  0  0  0  0  0  0  0  0  0  0  0
  -20.7274   -6.6517   10.9738 C   0  0  0  0  0  0  0  0  0  0  0  0
  -21.8083   -6.6128   10.0928 C   0  0  0  0  0  0  0  0  0  0  0  0
  -23.1490   -7.7415    9.1265 H   0  0  0  0  0  0  0  0  0  0  0  0
  1  6  1  0  0  0
  1  7  2  0  0  0
  2  9  1  0  0  0
  3 10  1  0  0  0
  4 12  1  0  0  0
 17 23  1  0  0  0
  5  6  1  0  0  0
  5  8  1  0  0  0
  5 10  2  0  0  0
  6 11  2  0  0  0
  7 18  1  0  0  0
  7  9  1  0  0  0
 18 19  1  0  0  0
 18 20  2  0  0  0
  8  9  2  0  0  0
 10 13  1  0  0  0
 11 12  1  0  0  0
 12 13  2  0  0  0
 19 21  2  0  0  0
 20 22  1  0  0  0
 21 23  1  0  0  0
 22 23  2  0  0  0
  2 14  1  0  0  0
  3 15  1  0  0  0
  4 16  1  0  0  0
 17 24  1  0  0  0
M  CHG 1   1   1
M  END
> <PUBCHEM_COMPOUND_CID>
440832

> <PUBCHEM_CONFORMER_RMSD>
0.6

> <PUBCHEM_CONFORMER_DIVERSEORDER>
1

> <PUBCHEM_MMFF94_PARTIAL_CHARGES>
31
1 -0.87
10 -0.18
11 0.09
12 0.08
13 -0.15
14 0.08
15 -0.15
16 -0.15
17 -0.15
18 -0.15
19 -0.15
2 -0.53
20 0.08
21 0.15
22 0.15
23 0.15
24 0.15
25 0.15
26 0.15
27 0.15
28 0.45
29 0.45
3 -0.53
30 0.45
31 0.45
4 -0.53
5 -0.53
6 0.03
7 0.92
8 0.85
9 0.09

> <PUBCHEM_EFFECTIVE_ROTOR_COUNT>
1

> <PUBCHEM_PHARMACOPHORE_FEATURES>
7
1 2 donor
1 3 donor
1 4 donor
1 5 donor
6 1 6 7 8 10 11 rings
6 6 7 12 13 14 15 rings
6 9 16 17 18 19 20 rings

> <PUBCHEM_HEAVY_ATOM_COUNT>
20

> <PUBCHEM_ATOM_DEF_STEREO_COUNT>
0

> <PUBCHEM_ATOM_UDEF_STEREO_COUNT>
0

> <PUBCHEM_BOND_DEF_STEREO_COUNT>
0

> <PUBCHEM_BOND_UDEF_STEREO_COUNT>
0

> <PUBCHEM_ISOTOPIC_ATOM_COUNT>
0

> <PUBCHEM_COMPONENT_COUNT>
1

> <PUBCHEM_CACTVS_TAUTO_COUNT>
123

> <PUBCHEM_CONFORMER_ID>
0006BA0000000001

> <PUBCHEM_MMFF94_ENERGY>
64.1635

> <PUBCHEM_FEATURE_SELFOVERLAP>
35.553

> <PUBCHEM_SHAPE_FINGERPRINT>
10912923 1 17775009011462553587
11471102 20 18409167748677038784
11796584 16 17240481420544569243
12107183 9 17768543685485662955
12236239 1 17846501461145643955
12553582 1 18343577443357800446
13134695 92 18341610455779532125
13140716 1 17979914136049333176
13533116 47 18272369793367557795
13544653 18 18335424555900252589
13760787 5 18342454850565180751
13862211 1 18409728418240748554
13955234 65 18340482361581705944
14386348 63 17894914057364563531
14576447 43 18057310893810487135
15196674 1 18410575050330078089
15375358 24 18040714809249801361
15375462 189 18131351929336143784
15961568 22 16009317633729255332
16945 1 18410855503653127024
17357779 13 18260536819185890613
17492 89 18196088850708736206
17844677 252 18335987497527652437
1813 80 18271258139624578164
18186145 218 17458345212702309472
19784866 140 18187362086984764755
200 152 18342172254728573675
20028762 73 18272928298014952126
20281475 54 18273490186830765239
20645477 70 18408037407779475294
21065201 7 16587738728954076179
21267235 1 18412269411092286358
221357 26 18261383447924706301
221490 88 18336547110586721260
23175994 123 18114185241944890821
23402539 116 18340484465482794607
23559900 14 17603871100446616138
25147074 1 18268445563622898672
26918003 58 18113899372588674627
2871803 45 18187082823858124178
312423 11 18339655438379638508
314194 84 18343580776453278247
33824 294 18408320012675222954
345986 75 18059571322276702426
34797466 226 16588034531994622479
34934 24 18268706280842806454
42630746 31 18413107295055907464
46194498 28 17531806986706277821
465052 167 18343306976282523479
474 4 17771053084442772600
5104073 3 18339920416118116080
5281201 14 17894911819312127852
5283173 99 18042677322042983325
573450 72 17203891860000485811
602551 16 15195276581727172325
9709674 26 18335141973038140416

> <PUBCHEM_SHAPE_MULTIPOLES>
382.24
10.91
2.07
0.91
5.55
0.52
0.01
-4.41
0.13
-2.71
-0.02
1.07
-0.09
-0.05

> <PUBCHEM_SHAPE_SELFOVERLAP>
852.11

> <PUBCHEM_SHAPE_VOLUME>
201.8

> <PUBCHEM_COORDINATE_TYPE>
2
5
10

> <minimizedAffinity>
-7.00638

> <CNNscore>
0.3620020151

> <CNNaffinity>
4.4746694565

> <CNN_VS>
1.6198393106

> <CNNaffinity_variance>
0.6631108522

$$$$
440832


 24 26  0  0  0  0  0  0  0  0999 V2000
  -19.7159   -2.7123   10.2795 O   0  0  0  0  0  0  0  0  0  0  0  0
  -18.4921   -1.4863   13.5485 O   0  0  0  0  0  0  0  0  0  0  0  0
  -21.7044   -5.4802   13.7415 O   0  0  0  0  0  0  0  0  0  0  0  0
  -22.7772   -6.2270    9.1675 O   0  0  0  0  0  0  0  0  0  0  0  0
  -20.6965   -4.0816   12.0561 C   0  0  0  0  0  0  0  0  0  0  0  0
  -20.5592   -3.7568   10.7026 C   0  0  0  0  0  0  0  0  0  0  0  0
  -19.0482   -2.0518   11.1840 C   0  0  0  0  0  0  0  0  0  0  0  0
  -19.9627   -3.2949   13.0411 C   0  0  0  0  0  0  0  0  0  0  0  0
  -19.1568   -2.2966   12.6572 C   0  0  0  0  0  0  0  0  0  0  0  0
  -21.5384   -5.1318   12.4335 C   0  0  0  0  0  0  0  0  0  0  0  0
  -21.2576   -4.4769    9.7327 C   0  0  0  0  0  0  0  0  0  0  0  0
  -22.0958   -5.5238   10.1127 C   0  0  0  0  0  0  0  0  0  0  0  0
  -22.2354   -5.8513   11.4614 C   0  0  0  0  0  0  0  0  0  0  0  0
  -17.9380   -0.7993   13.2339 H   0  0  0  0  0  0  0  0  0  0  0  0
  -21.2475   -5.0124   14.4126 H   0  0  0  0  0  0  0  0  0  0  0  0
  -22.6834   -6.0070    8.2615 H   0  0  0  0  0  0  0  0  0  0  0  0
  -15.6074    2.0586    9.4851 O   0  0  0  0  0  0  0  0  0  0  0  0
  -18.1415   -0.9685   10.7370 C   0  0  0  0  0  0  0  0  0  0  0  0
  -18.6514    0.3037   10.5044 C   0  0  0  0  0  0  0  0  0  0  0  0
  -16.7892   -1.2347   10.5537 C   0  0  0  0  0  0  0  0  0  0  0  0
  -17.7979    1.3233   10.0831 C   0  0  0  0  0  0  0  0  0  0  0  0
  -15.9356   -0.2151   10.1327 C   0  0  0  0  0  0  0  0  0  0  0  0
  -16.4398    1.0641    9.8973 C   0  0  0  0  0  0  0  0  0  0  0  0
  -15.9463    2.9178    9.3270 H   0  0  0  0  0  0  0  0  0  0  0  0
  1  6  1  0  0  0
  1  7  2  0  0  0
  2  9  1  0  0  0
  3 10  1  0  0  0
  4 12  1  0  0  0
 17 23  1  0  0  0
  5  6  1  0  0  0
  5  8  1  0  0  0
  5 10  2  0  0  0
  6 11  2  0  0  0
  7 18  1  0  0  0
  7  9  1  0  0  0
 18 19  1  0  0  0
 18 20  2  0  0  0
  8  9  2  0  0  0
 10 13  1  0  0  0
 11 12  1  0  0  0
 12 13  2  0  0  0
 19 21  2  0  0  0
 20 22  1  0  0  0
 21 23  1  0  0  0
 22 23  2  0  0  0
  2 14  1  0  0  0
  3 15  1  0  0  0
  4 16  1  0  0  0
 17 24  1  0  0  0
M  CHG 1   1   1
M  END
> <PUBCHEM_COMPOUND_CID>
440832

> <PUBCHEM_CONFORMER_RMSD>
0.6

> <PUBCHEM_CONFORMER_DIVERSEORDER>
1

> <PUBCHEM_MMFF94_PARTIAL_CHARGES>
31
1 -0.87
10 -0.18
11 0.09
12 0.08
13 -0.15
14 0.08
15 -0.15
16 -0.15
17 -0.15
18 -0.15
19 -0.15
2 -0.53
20 0.08
21 0.15
22 0.15
23 0.15
24 0.15
25 0.15
26 0.15
27 0.15
28 0.45
29 0.45
3 -0.53
30 0.45
31 0.45
4 -0.53
5 -0.53
6 0.03
7 0.92
8 0.85
9 0.09

> <PUBCHEM_EFFECTIVE_ROTOR_COUNT>
1

> <PUBCHEM_PHARMACOPHORE_FEATURES>
7
1 2 donor
1 3 donor
1 4 donor
1 5 donor
6 1 6 7 8 10 11 rings
6 6 7 12 13 14 15 rings
6 9 16 17 18 19 20 rings

> <PUBCHEM_HEAVY_ATOM_COUNT>
20

> <PUBCHEM_ATOM_DEF_STEREO_COUNT>
0

> <PUBCHEM_ATOM_UDEF_STEREO_COUNT>
0

> <PUBCHEM_BOND_DEF_STEREO_COUNT>
0

> <PUBCHEM_BOND_UDEF_STEREO_COUNT>
0

> <PUBCHEM_ISOTOPIC_ATOM_COUNT>
0

> <PUBCHEM_COMPONENT_COUNT>
1

> <PUBCHEM_CACTVS_TAUTO_COUNT>
123

> <PUBCHEM_CONFORMER_ID>
0006BA0000000001

> <PUBCHEM_MMFF94_ENERGY>
64.1635

> <PUBCHEM_FEATURE_SELFOVERLAP>
35.553

> <PUBCHEM_SHAPE_FINGERPRINT>
10912923 1 17775009011462553587
11471102 20 18409167748677038784
11796584 16 17240481420544569243
12107183 9 17768543685485662955
12236239 1 17846501461145643955
12553582 1 18343577443357800446
13134695 92 18341610455779532125
13140716 1 17979914136049333176
13533116 47 18272369793367557795
13544653 18 18335424555900252589
13760787 5 18342454850565180751
13862211 1 18409728418240748554
13955234 65 18340482361581705944
14386348 63 17894914057364563531
14576447 43 18057310893810487135
15196674 1 18410575050330078089
15375358 24 18040714809249801361
15375462 189 18131351929336143784
15961568 22 16009317633729255332
16945 1 18410855503653127024
17357779 13 18260536819185890613
17492 89 18196088850708736206
17844677 252 18335987497527652437
1813 80 18271258139624578164
18186145 218 17458345212702309472
19784866 140 18187362086984764755
200 152 18342172254728573675
20028762 73 18272928298014952126
20281475 54 18273490186830765239
20645477 70 18408037407779475294
21065201 7 16587738728954076179
21267235 1 18412269411092286358
221357 26 18261383447924706301
221490 88 18336547110586721260
23175994 123 18114185241944890821
23402539 116 18340484465482794607
23559900 14 17603871100446616138
25147074 1 18268445563622898672
26918003 58 18113899372588674627
2871803 45 18187082823858124178
312423 11 18339655438379638508
314194 84 18343580776453278247
33824 294 18408320012675222954
345986 75 18059571322276702426
34797466 226 16588034531994622479
34934 24 18268706280842806454
42630746 31 18413107295055907464
46194498 28 17531806986706277821
465052 167 18343306976282523479
474 4 17771053084442772600
5104073 3 18339920416118116080
5281201 14 17894911819312127852
5283173 99 18042677322042983325
573450 72 17203891860000485811
602551 16 15195276581727172325
9709674 26 18335141973038140416

> <PUBCHEM_SHAPE_MULTIPOLES>
382.24
10.91
2.07
0.91
5.55
0.52
0.01
-4.41
0.13
-2.71
-0.02
1.07
-0.09
-0.05

> <PUBCHEM_SHAPE_SELFOVERLAP>
852.11

> <PUBCHEM_SHAPE_VOLUME>
201.8

> <PUBCHEM_COORDINATE_TYPE>
2
5
10

> <minimizedAffinity>
-6.24894

> <CNNscore>
0.3530942202

> <CNNaffinity>
4.4522743225

> <CNN_VS>
1.5720723867

> <CNNaffinity_variance>
0.3062310219

$$$$
