441773


 26 28  0  0  0  0  0  0  0  0999 V2000
  -23.3051   -3.2882   11.5592 O   0  0  0  0  0  0  0  0  0  0  0  0
  -21.3566   -0.9708   13.6850 O   0  0  0  0  0  0  0  0  0  0  0  0
  -18.8916   -5.2157   12.1976 O   0  0  0  0  0  0  0  0  0  0  0  0
  -22.1788   -7.5444    9.6674 O   0  0  0  0  0  0  0  0  0  0  0  0
  -21.0698   -4.2237   11.9078 C   0  0  0  0  0  0  0  0  0  0  0  0
  -22.9512   -2.2377   12.2456 C   0  0  0  0  0  0  0  0  0  0  0  0
  -22.3579   -4.3120   11.3695 C   0  0  0  0  0  0  0  0  0  0  0  0
  -21.6125   -2.0671   12.8941 C   0  0  0  0  0  0  0  0  0  0  0  0
  -20.7236   -3.0504   12.7020 C   0  0  0  0  0  0  0  0  0  0  0  0
  -20.1563   -5.2590   11.6891 C   0  0  0  0  0  0  0  0  0  0  0  0
  -22.7303   -5.4267   10.6175 C   0  0  0  0  0  0  0  0  0  0  0  0
  -21.8166   -6.4568   10.4011 C   0  0  0  0  0  0  0  0  0  0  0  0
  -20.5310   -6.3728   10.9356 C   0  0  0  0  0  0  0  0  0  0  0  0
  -22.0091   -0.3067   13.7906 H   0  0  0  0  0  0  0  0  0  0  0  0
  -18.6163   -4.4788   12.7066 H   0  0  0  0  0  0  0  0  0  0  0  0
  -23.0425   -7.6008    9.3083 H   0  0  0  0  0  0  0  0  0  0  0  0
  -26.7116    1.8875   12.9334 O   0  0  0  0  0  0  0  0  0  0  0  0
  -23.9401   -1.1490   12.4244 C   0  0  0  0  0  0  0  0  0  0  0  0
  -23.6942    0.1023   11.8705 C   0  0  0  0  0  0  0  0  0  0  0  0
  -25.1045   -1.3888   13.1452 C   0  0  0  0  0  0  0  0  0  0  0  0
  -24.6249    1.1272   12.0395 C   0  0  0  0  0  0  0  0  0  0  0  0
  -26.0352   -0.3638   13.3143 C   0  0  0  0  0  0  0  0  0  0  0  0
  -25.7955    0.8943   12.7615 C   0  0  0  0  0  0  0  0  0  0  0  0
  -26.5581    2.7353   12.5652 H   0  0  0  0  0  0  0  0  0  0  0  0
  -24.3791    2.3519   11.4962 O   0  0  0  0  0  0  0  0  0  0  0  0
  -23.6036    3.2621   12.2736 C   0  0  0  0  0  0  0  0  0  0  0  0
  1  6  2  0  0  0
  1  7  1  0  0  0
  2  8  1  0  0  0
  3 10  1  0  0  0
 25 21  1  0  0  0
 25 26  1  0  0  0
  4 12  1  0  0  0
 17 23  1  0  0  0
  5  7  1  0  0  0
  5  9  1  0  0  0
  5 10  2  0  0  0
  6 18  1  0  0  0
  6  8  1  0  0  0
  7 11  2  0  0  0
 18 19  2  0  0  0
 18 20  1  0  0  0
  8  9  2  0  0  0
 10 13  1  0  0  0
 11 12  1  0  0  0
 19 21  1  0  0  0
 20 22  2  0  0  0
 12 13  2  0  0  0
 21 23  2  0  0  0
 22 23  1  0  0  0
  2 14  1  0  0  0
  3 15  1  0  0  0
  4 16  1  0  0  0
 17 24  1  0  0  0
M  CHG 1   1   1
M  END
> <PUBCHEM_COMPOUND_CID>
441773

> <PUBCHEM_CONFORMER_RMSD>
0.6

> <PUBCHEM_CONFORMER_DIVERSEORDER>
1
3
2

> <PUBCHEM_MMFF94_PARTIAL_CHARGES>
32
1 -0.87
10 0.09
11 0.09
12 -0.18
13 0.08
14 -0.15
15 -0.15
16 -0.15
17 0.08
18 -0.15
19 0.08
2 -0.53
20 -0.15
21 0.08
22 0.28
23 0.15
24 0.15
25 0.15
26 0.15
27 0.15
28 0.15
29 0.45
3 -0.53
30 0.45
31 0.45
32 0.45
4 -0.36
5 -0.53
6 -0.53
7 0.03
8 0.85
9 0.92

> <PUBCHEM_EFFECTIVE_ROTOR_COUNT>
2

> <PUBCHEM_PHARMACOPHORE_FEATURES>
8
1 2 donor
1 3 donor
1 4 acceptor
1 5 donor
1 6 donor
6 1 7 8 9 11 12 rings
6 10 15 16 19 20 21 rings
6 7 9 13 14 17 18 rings

> <PUBCHEM_HEAVY_ATOM_COUNT>
22

> <PUBCHEM_ATOM_DEF_STEREO_COUNT>
0

> <PUBCHEM_ATOM_UDEF_STEREO_COUNT>
0

> <PUBCHEM_BOND_DEF_STEREO_COUNT>
0

> <PUBCHEM_BOND_UDEF_STEREO_COUNT>
0

> <PUBCHEM_ISOTOPIC_ATOM_COUNT>
0

> <PUBCHEM_COMPONENT_COUNT>
1

> <PUBCHEM_CACTVS_TAUTO_COUNT>
183

> <PUBCHEM_CONFORMER_ID>
0006BDAD00000001

> <PUBCHEM_MMFF94_ENERGY>
80.5779

> <PUBCHEM_FEATURE_SELFOVERLAP>
40.627

> <PUBCHEM_SHAPE_FINGERPRINT>
10912923 1 17989205975170209907
11370993 144 18260277347542570843
11552529 35 18054231200596849499
11796584 16 16732695039135547138
12107183 9 17555749711141526987
12236239 1 17917428757066726999
12422481 6 17916032252339185533
12553582 1 18412262826938842830
12596602 18 17275384330673487034
12616971 3 18273497853547985026
12670546 56 17775000219511641289
12760667 363 18263359205362742050
13140716 1 17978505666112669072
13544653 18 18333731307988202948
13760787 5 18412824694291369756
14251732 14 14563111229060832251
14294032 229 16558204735480552657
14386348 63 17748823038224551159
14739800 52 16485830592908374440
14790565 3 17759532453510812500
15196674 1 18410005507844496236
15475509 84 17986682476090020768
15788980 27 18409444774004217007
17844677 252 18334575724270534124
17980427 23 17060622213847420145
1813 80 18341623589768061076
18785283 64 17461171120863698924
19078846 21 17346881156363918632
193927 3 18261395482233262594
200 152 18341321236754643191
20645477 70 18334846217459038806
20739085 24 18338531771666100100
21033648 29 17896021261178832397
21065198 48 18059859484506734857
21065201 7 16153696596904926590
21267235 1 18411700963849738606
212916 134 15913332364404711455
23175994 123 18040714775296478893
23557571 272 16878211000714365708
23559900 14 16877662361729266966
239999 70 17603584149676428618
2871803 45 18114175307574563858
312423 11 18337117761485141164
3411729 13 15768347587464821384
341906 21 15769783437564886379
345986 75 18129655297353673850
34797466 226 16443351983039226638
474 4 17841421832920691448
5104073 3 18202565094222890963
5281201 14 17822006502136193324
542803 24 17632300102721073027
573450 72 17275383218260944271
7064713 232 17275098414521367422
7495541 125 16515687792199983108

> <PUBCHEM_SHAPE_MULTIPOLES>
417.53
12.12
1.98
1.34
1.92
0.52
-0.2
-3.54
-2.91
-2.74
-0.03
2.74
-0.05
-1.04

> <PUBCHEM_SHAPE_SELFOVERLAP>
924.283

> <PUBCHEM_SHAPE_VOLUME>
222.2

> <PUBCHEM_COORDINATE_TYPE>
2
5
10

> <minimizedAffinity>
-5.77541

> <CNNscore>
0.5327544808

> <CNNaffinity>
4.4682302475

> <CNN_VS>
2.3804697990

> <CNNaffinity_variance>
0.0403019972

$$$$
441773


 26 28  0  0  0  0  0  0  0  0999 V2000
  -20.2779   -1.1657   11.3781 O   0  0  0  0  0  0  0  0  0  0  0  0
  -17.5980   -3.4435   10.2310 O   0  0  0  0  0  0  0  0  0  0  0  0
  -22.0141   -5.7001   11.5397 O   0  0  0  0  0  0  0  0  0  0  0  0
  -24.7191   -2.0484   12.9464 O   0  0  0  0  0  0  0  0  0  0  0  0
  -21.1118   -3.4664   11.4451 C   0  0  0  0  0  0  0  0  0  0  0  0
  -19.1533   -1.6083   10.8890 C   0  0  0  0  0  0  0  0  0  0  0  0
  -21.2940   -2.0969   11.6640 C   0  0  0  0  0  0  0  0  0  0  0  0
  -18.8475   -3.0555   10.6565 C   0  0  0  0  0  0  0  0  0  0  0  0
  -19.8262   -3.9269   10.9329 C   0  0  0  0  0  0  0  0  0  0  0  0
  -22.1495   -4.3572   11.7347 C   0  0  0  0  0  0  0  0  0  0  0  0
  -22.5048   -1.6208   12.1680 C   0  0  0  0  0  0  0  0  0  0  0  0
  -23.5375   -2.5119   12.4551 C   0  0  0  0  0  0  0  0  0  0  0  0
  -23.3603   -3.8783   12.2381 C   0  0  0  0  0  0  0  0  0  0  0  0
  -16.9436   -2.7980   10.0493 H   0  0  0  0  0  0  0  0  0  0  0  0
  -21.2111   -6.0460   11.2029 H   0  0  0  0  0  0  0  0  0  0  0  0
  -24.8380   -1.1304   13.0922 H   0  0  0  0  0  0  0  0  0  0  0  0
  -15.1178    2.1125    9.6632 O   0  0  0  0  0  0  0  0  0  0  0  0
  -18.0926   -0.6258   10.5648 C   0  0  0  0  0  0  0  0  0  0  0  0
  -18.4052    0.5026    9.8152 C   0  0  0  0  0  0  0  0  0  0  0  0
  -16.7944   -0.8421   11.0129 C   0  0  0  0  0  0  0  0  0  0  0  0
  -17.4065    1.4270    9.5097 C   0  0  0  0  0  0  0  0  0  0  0  0
  -15.7957    0.0824   10.7072 C   0  0  0  0  0  0  0  0  0  0  0  0
  -16.1015    1.2169    9.9556 C   0  0  0  0  0  0  0  0  0  0  0  0
  -15.3152    2.8771    9.1588 H   0  0  0  0  0  0  0  0  0  0  0  0
  -17.7171    2.5303    8.7737 O   0  0  0  0  0  0  0  0  0  0  0  0
  -18.5956    2.3442    7.6656 C   0  0  0  0  0  0  0  0  0  0  0  0
  1  6  2  0  0  0
  1  7  1  0  0  0
  2  8  1  0  0  0
  3 10  1  0  0  0
 25 21  1  0  0  0
 25 26  1  0  0  0
  4 12  1  0  0  0
 17 23  1  0  0  0
  5  7  1  0  0  0
  5  9  1  0  0  0
  5 10  2  0  0  0
  6 18  1  0  0  0
  6  8  1  0  0  0
  7 11  2  0  0  0
 18 19  2  0  0  0
 18 20  1  0  0  0
  8  9  2  0  0  0
 10 13  1  0  0  0
 11 12  1  0  0  0
 19 21  1  0  0  0
 20 22  2  0  0  0
 12 13  2  0  0  0
 21 23  2  0  0  0
 22 23  1  0  0  0
  2 14  1  0  0  0
  3 15  1  0  0  0
  4 16  1  0  0  0
 17 24  1  0  0  0
M  CHG 1   1   1
M  END
> <PUBCHEM_COMPOUND_CID>
441773

> <PUBCHEM_CONFORMER_RMSD>
0.6

> <PUBCHEM_CONFORMER_DIVERSEORDER>
1
3
2

> <PUBCHEM_MMFF94_PARTIAL_CHARGES>
32
1 -0.87
10 0.09
11 0.09
12 -0.18
13 0.08
14 -0.15
15 -0.15
16 -0.15
17 0.08
18 -0.15
19 0.08
2 -0.53
20 -0.15
21 0.08
22 0.28
23 0.15
24 0.15
25 0.15
26 0.15
27 0.15
28 0.15
29 0.45
3 -0.53
30 0.45
31 0.45
32 0.45
4 -0.36
5 -0.53
6 -0.53
7 0.03
8 0.85
9 0.92

> <PUBCHEM_EFFECTIVE_ROTOR_COUNT>
2

> <PUBCHEM_PHARMACOPHORE_FEATURES>
8
1 2 donor
1 3 donor
1 4 acceptor
1 5 donor
1 6 donor
6 1 7 8 9 11 12 rings
6 10 15 16 19 20 21 rings
6 7 9 13 14 17 18 rings

> <PUBCHEM_HEAVY_ATOM_COUNT>
22

> <PUBCHEM_ATOM_DEF_STEREO_COUNT>
0

> <PUBCHEM_ATOM_UDEF_STEREO_COUNT>
0

> <PUBCHEM_BOND_DEF_STEREO_COUNT>
0

> <PUBCHEM_BOND_UDEF_STEREO_COUNT>
0

> <PUBCHEM_ISOTOPIC_ATOM_COUNT>
0

> <PUBCHEM_COMPONENT_COUNT>
1

> <PUBCHEM_CACTVS_TAUTO_COUNT>
183

> <PUBCHEM_CONFORMER_ID>
0006BDAD00000001

> <PUBCHEM_MMFF94_ENERGY>
80.5779

> <PUBCHEM_FEATURE_SELFOVERLAP>
40.627

> <PUBCHEM_SHAPE_FINGERPRINT>
10912923 1 17989205975170209907
11370993 144 18260277347542570843
11552529 35 18054231200596849499
11796584 16 16732695039135547138
12107183 9 17555749711141526987
12236239 1 17917428757066726999
12422481 6 17916032252339185533
12553582 1 18412262826938842830
12596602 18 17275384330673487034
12616971 3 18273497853547985026
12670546 56 17775000219511641289
12760667 363 18263359205362742050
13140716 1 17978505666112669072
13544653 18 18333731307988202948
13760787 5 18412824694291369756
14251732 14 14563111229060832251
14294032 229 16558204735480552657
14386348 63 17748823038224551159
14739800 52 16485830592908374440
14790565 3 17759532453510812500
15196674 1 18410005507844496236
15475509 84 17986682476090020768
15788980 27 18409444774004217007
17844677 252 18334575724270534124
17980427 23 17060622213847420145
1813 80 18341623589768061076
18785283 64 17461171120863698924
19078846 21 17346881156363918632
193927 3 18261395482233262594
200 152 18341321236754643191
20645477 70 18334846217459038806
20739085 24 18338531771666100100
21033648 29 17896021261178832397
21065198 48 18059859484506734857
21065201 7 16153696596904926590
21267235 1 18411700963849738606
212916 134 15913332364404711455
23175994 123 18040714775296478893
23557571 272 16878211000714365708
23559900 14 16877662361729266966
239999 70 17603584149676428618
2871803 45 18114175307574563858
312423 11 18337117761485141164
3411729 13 15768347587464821384
341906 21 15769783437564886379
345986 75 18129655297353673850
34797466 226 16443351983039226638
474 4 17841421832920691448
5104073 3 18202565094222890963
5281201 14 17822006502136193324
542803 24 17632300102721073027
573450 72 17275383218260944271
7064713 232 17275098414521367422
7495541 125 16515687792199983108

> <PUBCHEM_SHAPE_MULTIPOLES>
417.53
12.12
1.98
1.34
1.92
0.52
-0.2
-3.54
-2.91
-2.74
-0.03
2.74
-0.05
-1.04

> <PUBCHEM_SHAPE_SELFOVERLAP>
924.283

> <PUBCHEM_SHAPE_VOLUME>
222.2

> <PUBCHEM_COORDINATE_TYPE>
2
5
10

> <minimizedAffinity>
-5.34051

> <CNNscore>
0.4784327745

> <CNNaffinity>
4.5944671631

> <CNN_VS>
2.1981437206

> <CNNaffinity_variance>
0.5398412943

$$$$
441773


 26 28  0  0  0  0  0  0  0  0999 V2000
  -23.7724   -2.4646   10.8995 O   0  0  0  0  0  0  0  0  0  0  0  0
  -23.2939   -5.1868    8.4404 O   0  0  0  0  0  0  0  0  0  0  0  0
  -27.1928   -1.9951    7.4815 O   0  0  0  0  0  0  0  0  0  0  0  0
  -27.0608    1.0107   11.1664 O   0  0  0  0  0  0  0  0  0  0  0  0
  -25.4797   -2.2659    9.1563 C   0  0  0  0  0  0  0  0  0  0  0  0
  -23.2647   -3.4805   10.2591 C   0  0  0  0  0  0  0  0  0  0  0  0
  -24.9005   -1.8259   10.3511 C   0  0  0  0  0  0  0  0  0  0  0  0
  -23.8341   -4.0504    8.9970 C   0  0  0  0  0  0  0  0  0  0  0  0
  -24.9064   -3.4292    8.4890 C   0  0  0  0  0  0  0  0  0  0  0  0
  -26.5946   -1.5983    8.6411 C   0  0  0  0  0  0  0  0  0  0  0  0
  -25.4312   -0.7260   11.0259 C   0  0  0  0  0  0  0  0  0  0  0  0
  -26.5426   -0.0624   10.5090 C   0  0  0  0  0  0  0  0  0  0  0  0
  -27.1232   -0.4976    9.3177 C   0  0  0  0  0  0  0  0  0  0  0  0
  -22.5422   -5.5877    8.8305 H   0  0  0  0  0  0  0  0  0  0  0  0
  -26.8566   -2.7311    7.0090 H   0  0  0  0  0  0  0  0  0  0  0  0
  -26.6707    1.3030   11.9667 H   0  0  0  0  0  0  0  0  0  0  0  0
  -18.7093   -5.9845   12.4062 O   0  0  0  0  0  0  0  0  0  0  0  0
  -22.0625   -4.1376   10.8233 C   0  0  0  0  0  0  0  0  0  0  0  0
  -20.7979   -3.6938   10.4537 C   0  0  0  0  0  0  0  0  0  0  0  0
  -22.2107   -5.1924   11.7168 C   0  0  0  0  0  0  0  0  0  0  0  0
  -19.6664   -4.3129   10.9845 C   0  0  0  0  0  0  0  0  0  0  0  0
  -21.0791   -5.8115   12.2475 C   0  0  0  0  0  0  0  0  0  0  0  0
  -19.8069   -5.3720   11.8815 C   0  0  0  0  0  0  0  0  0  0  0  0
  -17.8513   -5.6951   12.1653 H   0  0  0  0  0  0  0  0  0  0  0  0
  -18.4294   -3.8757   10.6183 O   0  0  0  0  0  0  0  0  0  0  0  0
  -18.2363   -2.4645   10.5441 C   0  0  0  0  0  0  0  0  0  0  0  0
  1  6  2  0  0  0
  1  7  1  0  0  0
  2  8  1  0  0  0
  3 10  1  0  0  0
 25 21  1  0  0  0
 25 26  1  0  0  0
  4 12  1  0  0  0
 17 23  1  0  0  0
  5  7  1  0  0  0
  5  9  1  0  0  0
  5 10  2  0  0  0
  6 18  1  0  0  0
  6  8  1  0  0  0
  7 11  2  0  0  0
 18 19  2  0  0  0
 18 20  1  0  0  0
  8  9  2  0  0  0
 10 13  1  0  0  0
 11 12  1  0  0  0
 19 21  1  0  0  0
 20 22  2  0  0  0
 12 13  2  0  0  0
 21 23  2  0  0  0
 22 23  1  0  0  0
  2 14  1  0  0  0
  3 15  1  0  0  0
  4 16  1  0  0  0
 17 24  1  0  0  0
M  CHG 1   1   1
M  END
> <PUBCHEM_COMPOUND_CID>
441773

> <PUBCHEM_CONFORMER_RMSD>
0.6

> <PUBCHEM_CONFORMER_DIVERSEORDER>
1
3
2

> <PUBCHEM_MMFF94_PARTIAL_CHARGES>
32
1 -0.87
10 0.09
11 0.09
12 -0.18
13 0.08
14 -0.15
15 -0.15
16 -0.15
17 0.08
18 -0.15
19 0.08
2 -0.53
20 -0.15
21 0.08
22 0.28
23 0.15
24 0.15
25 0.15
26 0.15
27 0.15
28 0.15
29 0.45
3 -0.53
30 0.45
31 0.45
32 0.45
4 -0.36
5 -0.53
6 -0.53
7 0.03
8 0.85
9 0.92

> <PUBCHEM_EFFECTIVE_ROTOR_COUNT>
2

> <PUBCHEM_PHARMACOPHORE_FEATURES>
8
1 2 donor
1 3 donor
1 4 acceptor
1 5 donor
1 6 donor
6 1 7 8 9 11 12 rings
6 10 15 16 19 20 21 rings
6 7 9 13 14 17 18 rings

> <PUBCHEM_HEAVY_ATOM_COUNT>
22

> <PUBCHEM_ATOM_DEF_STEREO_COUNT>
0

> <PUBCHEM_ATOM_UDEF_STEREO_COUNT>
0

> <PUBCHEM_BOND_DEF_STEREO_COUNT>
0

> <PUBCHEM_BOND_UDEF_STEREO_COUNT>
0

> <PUBCHEM_ISOTOPIC_ATOM_COUNT>
0

> <PUBCHEM_COMPONENT_COUNT>
1

> <PUBCHEM_CACTVS_TAUTO_COUNT>
183

> <PUBCHEM_CONFORMER_ID>
0006BDAD00000001

> <PUBCHEM_MMFF94_ENERGY>
80.5779

> <PUBCHEM_FEATURE_SELFOVERLAP>
40.627

> <PUBCHEM_SHAPE_FINGERPRINT>
10912923 1 17989205975170209907
11370993 144 18260277347542570843
11552529 35 18054231200596849499
11796584 16 16732695039135547138
12107183 9 17555749711141526987
12236239 1 17917428757066726999
12422481 6 17916032252339185533
12553582 1 18412262826938842830
12596602 18 17275384330673487034
12616971 3 18273497853547985026
12670546 56 17775000219511641289
12760667 363 18263359205362742050
13140716 1 17978505666112669072
13544653 18 18333731307988202948
13760787 5 18412824694291369756
14251732 14 14563111229060832251
14294032 229 16558204735480552657
14386348 63 17748823038224551159
14739800 52 16485830592908374440
14790565 3 17759532453510812500
15196674 1 18410005507844496236
15475509 84 17986682476090020768
15788980 27 18409444774004217007
17844677 252 18334575724270534124
17980427 23 17060622213847420145
1813 80 18341623589768061076
18785283 64 17461171120863698924
19078846 21 17346881156363918632
193927 3 18261395482233262594
200 152 18341321236754643191
20645477 70 18334846217459038806
20739085 24 18338531771666100100
21033648 29 17896021261178832397
21065198 48 18059859484506734857
21065201 7 16153696596904926590
21267235 1 18411700963849738606
212916 134 15913332364404711455
23175994 123 18040714775296478893
23557571 272 16878211000714365708
23559900 14 16877662361729266966
239999 70 17603584149676428618
2871803 45 18114175307574563858
312423 11 18337117761485141164
3411729 13 15768347587464821384
341906 21 15769783437564886379
345986 75 18129655297353673850
34797466 226 16443351983039226638
474 4 17841421832920691448
5104073 3 18202565094222890963
5281201 14 17822006502136193324
542803 24 17632300102721073027
573450 72 17275383218260944271
7064713 232 17275098414521367422
7495541 125 16515687792199983108

> <PUBCHEM_SHAPE_MULTIPOLES>
417.53
12.12
1.98
1.34
1.92
0.52
-0.2
-3.54
-2.91
-2.74
-0.03
2.74
-0.05
-1.04

> <PUBCHEM_SHAPE_SELFOVERLAP>
924.283

> <PUBCHEM_SHAPE_VOLUME>
222.2

> <PUBCHEM_COORDINATE_TYPE>
2
5
10

> <minimizedAffinity>
-4.48912

> <CNNscore>
0.4103375375

> <CNNaffinity>
4.4596543312

> <CNN_VS>
1.8299635649

> <CNNaffinity_variance>
0.0566388294

$$$$
441773


 26 28  0  0  0  0  0  0  0  0999 V2000
  -22.5567   -3.1697   12.1641 O   0  0  0  0  0  0  0  0  0  0  0  0
  -25.7512   -3.5766   10.3432 O   0  0  0  0  0  0  0  0  0  0  0  0
  -22.3430   -7.3570    9.7100 O   0  0  0  0  0  0  0  0  0  0  0  0
  -18.6212   -5.9008   12.2904 O   0  0  0  0  0  0  0  0  0  0  0  0
  -22.4911   -5.2713   10.9103 C   0  0  0  0  0  0  0  0  0  0  0  0
  -23.7775   -2.9816   11.7469 C   0  0  0  0  0  0  0  0  0  0  0  0
  -21.8831   -4.3355   11.7536 C   0  0  0  0  0  0  0  0  0  0  0  0
  -24.4997   -3.9024   10.8128 C   0  0  0  0  0  0  0  0  0  0  0  0
  -23.8440   -5.0070   10.4337 C   0  0  0  0  0  0  0  0  0  0  0  0
  -21.7901   -6.4204   10.5327 C   0  0  0  0  0  0  0  0  0  0  0  0
  -20.5840   -4.5467   12.2169 C   0  0  0  0  0  0  0  0  0  0  0  0
  -19.8883   -5.6938   11.8387 C   0  0  0  0  0  0  0  0  0  0  0  0
  -20.4909   -6.6298   10.9983 C   0  0  0  0  0  0  0  0  0  0  0  0
  -26.1722   -2.7927   10.6366 H   0  0  0  0  0  0  0  0  0  0  0  0
  -23.2137   -7.2392    9.3843 H   0  0  0  0  0  0  0  0  0  0  0  0
  -18.2165   -5.2720   12.8550 H   0  0  0  0  0  0  0  0  0  0  0  0
  -26.5090    1.6223   13.4717 O   0  0  0  0  0  0  0  0  0  0  0  0
  -24.4955   -1.7668   12.1987 C   0  0  0  0  0  0  0  0  0  0  0  0
  -24.1345   -0.5244   11.6898 C   0  0  0  0  0  0  0  0  0  0  0  0
  -25.5232   -1.8809   13.1281 C   0  0  0  0  0  0  0  0  0  0  0  0
  -24.8100    0.6190   12.1157 C   0  0  0  0  0  0  0  0  0  0  0  0
  -26.1986   -0.7373   13.5541 C   0  0  0  0  0  0  0  0  0  0  0  0
  -25.8422    0.5127   13.0481 C   0  0  0  0  0  0  0  0  0  0  0  0
  -26.2755    2.4656   13.1366 H   0  0  0  0  0  0  0  0  0  0  0  0
  -24.4519    1.8343   11.6155 O   0  0  0  0  0  0  0  0  0  0  0  0
  -23.0577    2.0764   11.4367 C   0  0  0  0  0  0  0  0  0  0  0  0
  1  6  2  0  0  0
  1  7  1  0  0  0
  2  8  1  0  0  0
  3 10  1  0  0  0
 25 21  1  0  0  0
 25 26  1  0  0  0
  4 12  1  0  0  0
 17 23  1  0  0  0
  5  7  1  0  0  0
  5  9  1  0  0  0
  5 10  2  0  0  0
  6 18  1  0  0  0
  6  8  1  0  0  0
  7 11  2  0  0  0
 18 19  2  0  0  0
 18 20  1  0  0  0
  8  9  2  0  0  0
 10 13  1  0  0  0
 11 12  1  0  0  0
 19 21  1  0  0  0
 20 22  2  0  0  0
 12 13  2  0  0  0
 21 23  2  0  0  0
 22 23  1  0  0  0
  2 14  1  0  0  0
  3 15  1  0  0  0
  4 16  1  0  0  0
 17 24  1  0  0  0
M  CHG 1   1   1
M  END
> <PUBCHEM_COMPOUND_CID>
441773

> <PUBCHEM_CONFORMER_RMSD>
0.6

> <PUBCHEM_CONFORMER_DIVERSEORDER>
1
3
2

> <PUBCHEM_MMFF94_PARTIAL_CHARGES>
32
1 -0.87
10 0.09
11 0.09
12 -0.18
13 0.08
14 -0.15
15 -0.15
16 -0.15
17 0.08
18 -0.15
19 0.08
2 -0.53
20 -0.15
21 0.08
22 0.28
23 0.15
24 0.15
25 0.15
26 0.15
27 0.15
28 0.15
29 0.45
3 -0.53
30 0.45
31 0.45
32 0.45
4 -0.36
5 -0.53
6 -0.53
7 0.03
8 0.85
9 0.92

> <PUBCHEM_EFFECTIVE_ROTOR_COUNT>
2

> <PUBCHEM_PHARMACOPHORE_FEATURES>
8
1 2 donor
1 3 donor
1 4 acceptor
1 5 donor
1 6 donor
6 1 7 8 9 11 12 rings
6 10 15 16 19 20 21 rings
6 7 9 13 14 17 18 rings

> <PUBCHEM_HEAVY_ATOM_COUNT>
22

> <PUBCHEM_ATOM_DEF_STEREO_COUNT>
0

> <PUBCHEM_ATOM_UDEF_STEREO_COUNT>
0

> <PUBCHEM_BOND_DEF_STEREO_COUNT>
0

> <PUBCHEM_BOND_UDEF_STEREO_COUNT>
0

> <PUBCHEM_ISOTOPIC_ATOM_COUNT>
0

> <PUBCHEM_COMPONENT_COUNT>
1

> <PUBCHEM_CACTVS_TAUTO_COUNT>
183

> <PUBCHEM_CONFORMER_ID>
0006BDAD00000001

> <PUBCHEM_MMFF94_ENERGY>
80.5779

> <PUBCHEM_FEATURE_SELFOVERLAP>
40.627

> <PUBCHEM_SHAPE_FINGERPRINT>
10912923 1 17989205975170209907
11370993 144 18260277347542570843
11552529 35 18054231200596849499
11796584 16 16732695039135547138
12107183 9 17555749711141526987
12236239 1 17917428757066726999
12422481 6 17916032252339185533
12553582 1 18412262826938842830
12596602 18 17275384330673487034
12616971 3 18273497853547985026
12670546 56 17775000219511641289
12760667 363 18263359205362742050
13140716 1 17978505666112669072
13544653 18 18333731307988202948
13760787 5 18412824694291369756
14251732 14 14563111229060832251
14294032 229 16558204735480552657
14386348 63 17748823038224551159
14739800 52 16485830592908374440
14790565 3 17759532453510812500
15196674 1 18410005507844496236
15475509 84 17986682476090020768
15788980 27 18409444774004217007
17844677 252 18334575724270534124
17980427 23 17060622213847420145
1813 80 18341623589768061076
18785283 64 17461171120863698924
19078846 21 17346881156363918632
193927 3 18261395482233262594
200 152 18341321236754643191
20645477 70 18334846217459038806
20739085 24 18338531771666100100
21033648 29 17896021261178832397
21065198 48 18059859484506734857
21065201 7 16153696596904926590
21267235 1 18411700963849738606
212916 134 15913332364404711455
23175994 123 18040714775296478893
23557571 272 16878211000714365708
23559900 14 16877662361729266966
239999 70 17603584149676428618
2871803 45 18114175307574563858
312423 11 18337117761485141164
3411729 13 15768347587464821384
341906 21 15769783437564886379
345986 75 18129655297353673850
34797466 226 16443351983039226638
474 4 17841421832920691448
5104073 3 18202565094222890963
5281201 14 17822006502136193324
542803 24 17632300102721073027
573450 72 17275383218260944271
7064713 232 17275098414521367422
7495541 125 16515687792199983108

> <PUBCHEM_SHAPE_MULTIPOLES>
417.53
12.12
1.98
1.34
1.92
0.52
-0.2
-3.54
-2.91
-2.74
-0.03
2.74
-0.05
-1.04

> <PUBCHEM_SHAPE_SELFOVERLAP>
924.283

> <PUBCHEM_SHAPE_VOLUME>
222.2

> <PUBCHEM_COORDINATE_TYPE>
2
5
10

> <minimizedAffinity>
-5.59363

> <CNNscore>
0.4082073867

> <CNNaffinity>
4.2438783646

> <CNN_VS>
1.7323825359

> <CNNaffinity_variance>
0.1416280419

$$$$
441773


 26 28  0  0  0  0  0  0  0  0999 V2000
  -22.6314    0.7615   11.1334 O   0  0  0  0  0  0  0  0  0  0  0  0
  -21.6190    4.0801   12.4174 O   0  0  0  0  0  0  0  0  0  0  0  0
  -26.3654    2.5799   13.6537 O   0  0  0  0  0  0  0  0  0  0  0  0
  -26.7578   -1.6462   11.5050 O   0  0  0  0  0  0  0  0  0  0  0  0
  -24.4884    1.7162   12.4113 C   0  0  0  0  0  0  0  0  0  0  0  0
  -21.9129    1.8072   11.4337 C   0  0  0  0  0  0  0  0  0  0  0  0
  -23.9477    0.6919   11.6271 C   0  0  0  0  0  0  0  0  0  0  0  0
  -22.4126    2.9717   12.2314 C   0  0  0  0  0  0  0  0  0  0  0  0
  -23.6666    2.8875   12.6940 C   0  0  0  0  0  0  0  0  0  0  0  0
  -25.7975    1.6041   12.8888 C   0  0  0  0  0  0  0  0  0  0  0  0
  -24.7094   -0.4368   11.3228 C   0  0  0  0  0  0  0  0  0  0  0  0
  -26.0141   -0.5454   11.8011 C   0  0  0  0  0  0  0  0  0  0  0  0
  -26.5573    0.4735   12.5837 C   0  0  0  0  0  0  0  0  0  0  0  0
  -20.7467    4.0944   12.0756 H   0  0  0  0  0  0  0  0  0  0  0  0
  -25.8758    3.3484   13.8722 H   0  0  0  0  0  0  0  0  0  0  0  0
  -26.3929   -2.3306   10.9793 H   0  0  0  0  0  0  0  0  0  0  0  0
  -16.6267    2.0497    9.5287 O   0  0  0  0  0  0  0  0  0  0  0  0
  -20.5191    1.8693   10.9347 C   0  0  0  0  0  0  0  0  0  0  0  0
  -19.4731    1.4795   11.7635 C   0  0  0  0  0  0  0  0  0  0  0  0
  -20.2705    2.3176    9.6424 C   0  0  0  0  0  0  0  0  0  0  0  0
  -18.1612    1.5387   11.2938 C   0  0  0  0  0  0  0  0  0  0  0  0
  -18.9585    2.3768    9.1727 C   0  0  0  0  0  0  0  0  0  0  0  0
  -17.9037    1.9874    9.9983 C   0  0  0  0  0  0  0  0  0  0  0  0
  -15.9127    1.7900   10.0770 H   0  0  0  0  0  0  0  0  0  0  0  0
  -17.1395    1.1571   12.1098 O   0  0  0  0  0  0  0  0  0  0  0  0
  -16.5980   -0.1463   11.9045 C   0  0  0  0  0  0  0  0  0  0  0  0
  1  6  2  0  0  0
  1  7  1  0  0  0
  2  8  1  0  0  0
  3 10  1  0  0  0
 25 21  1  0  0  0
 25 26  1  0  0  0
  4 12  1  0  0  0
 17 23  1  0  0  0
  5  7  1  0  0  0
  5  9  1  0  0  0
  5 10  2  0  0  0
  6 18  1  0  0  0
  6  8  1  0  0  0
  7 11  2  0  0  0
 18 19  2  0  0  0
 18 20  1  0  0  0
  8  9  2  0  0  0
 10 13  1  0  0  0
 11 12  1  0  0  0
 19 21  1  0  0  0
 20 22  2  0  0  0
 12 13  2  0  0  0
 21 23  2  0  0  0
 22 23  1  0  0  0
  2 14  1  0  0  0
  3 15  1  0  0  0
  4 16  1  0  0  0
 17 24  1  0  0  0
M  CHG 1   1   1
M  END
> <PUBCHEM_COMPOUND_CID>
441773

> <PUBCHEM_CONFORMER_RMSD>
0.6

> <PUBCHEM_CONFORMER_DIVERSEORDER>
1
3
2

> <PUBCHEM_MMFF94_PARTIAL_CHARGES>
32
1 -0.87
10 0.09
11 0.09
12 -0.18
13 0.08
14 -0.15
15 -0.15
16 -0.15
17 0.08
18 -0.15
19 0.08
2 -0.53
20 -0.15
21 0.08
22 0.28
23 0.15
24 0.15
25 0.15
26 0.15
27 0.15
28 0.15
29 0.45
3 -0.53
30 0.45
31 0.45
32 0.45
4 -0.36
5 -0.53
6 -0.53
7 0.03
8 0.85
9 0.92

> <PUBCHEM_EFFECTIVE_ROTOR_COUNT>
2

> <PUBCHEM_PHARMACOPHORE_FEATURES>
8
1 2 donor
1 3 donor
1 4 acceptor
1 5 donor
1 6 donor
6 1 7 8 9 11 12 rings
6 10 15 16 19 20 21 rings
6 7 9 13 14 17 18 rings

> <PUBCHEM_HEAVY_ATOM_COUNT>
22

> <PUBCHEM_ATOM_DEF_STEREO_COUNT>
0

> <PUBCHEM_ATOM_UDEF_STEREO_COUNT>
0

> <PUBCHEM_BOND_DEF_STEREO_COUNT>
0

> <PUBCHEM_BOND_UDEF_STEREO_COUNT>
0

> <PUBCHEM_ISOTOPIC_ATOM_COUNT>
0

> <PUBCHEM_COMPONENT_COUNT>
1

> <PUBCHEM_CACTVS_TAUTO_COUNT>
183

> <PUBCHEM_CONFORMER_ID>
0006BDAD00000001

> <PUBCHEM_MMFF94_ENERGY>
80.5779

> <PUBCHEM_FEATURE_SELFOVERLAP>
40.627

> <PUBCHEM_SHAPE_FINGERPRINT>
10912923 1 17989205975170209907
11370993 144 18260277347542570843
11552529 35 18054231200596849499
11796584 16 16732695039135547138
12107183 9 17555749711141526987
12236239 1 17917428757066726999
12422481 6 17916032252339185533
12553582 1 18412262826938842830
12596602 18 17275384330673487034
12616971 3 18273497853547985026
12670546 56 17775000219511641289
12760667 363 18263359205362742050
13140716 1 17978505666112669072
13544653 18 18333731307988202948
13760787 5 18412824694291369756
14251732 14 14563111229060832251
14294032 229 16558204735480552657
14386348 63 17748823038224551159
14739800 52 16485830592908374440
14790565 3 17759532453510812500
15196674 1 18410005507844496236
15475509 84 17986682476090020768
15788980 27 18409444774004217007
17844677 252 18334575724270534124
17980427 23 17060622213847420145
1813 80 18341623589768061076
18785283 64 17461171120863698924
19078846 21 17346881156363918632
193927 3 18261395482233262594
200 152 18341321236754643191
20645477 70 18334846217459038806
20739085 24 18338531771666100100
21033648 29 17896021261178832397
21065198 48 18059859484506734857
21065201 7 16153696596904926590
21267235 1 18411700963849738606
212916 134 15913332364404711455
23175994 123 18040714775296478893
23557571 272 16878211000714365708
23559900 14 16877662361729266966
239999 70 17603584149676428618
2871803 45 18114175307574563858
312423 11 18337117761485141164
3411729 13 15768347587464821384
341906 21 15769783437564886379
345986 75 18129655297353673850
34797466 226 16443351983039226638
474 4 17841421832920691448
5104073 3 18202565094222890963
5281201 14 17822006502136193324
542803 24 17632300102721073027
573450 72 17275383218260944271
7064713 232 17275098414521367422
7495541 125 16515687792199983108

> <PUBCHEM_SHAPE_MULTIPOLES>
417.53
12.12
1.98
1.34
1.92
0.52
-0.2
-3.54
-2.91
-2.74
-0.03
2.74
-0.05
-1.04

> <PUBCHEM_SHAPE_SELFOVERLAP>
924.283

> <PUBCHEM_SHAPE_VOLUME>
222.2

> <PUBCHEM_COORDINATE_TYPE>
2
5
10

> <minimizedAffinity>
-5.57490

> <CNNscore>
0.3738190234

> <CNNaffinity>
4.4629864693

> <CNN_VS>
1.6683492661

> <CNNaffinity_variance>
0.1945313960

$$$$
441773


 26 28  0  0  0  0  0  0  0  0999 V2000
  -21.9578   -4.8517   10.4935 O   0  0  0  0  0  0  0  0  0  0  0  0
  -25.4387   -4.1772    9.4380 O   0  0  0  0  0  0  0  0  0  0  0  0
  -23.5049   -0.9268   12.9025 O   0  0  0  0  0  0  0  0  0  0  0  0
  -19.1392   -2.6486   13.6818 O   0  0  0  0  0  0  0  0  0  0  0  0
  -22.7786   -2.8781   11.6870 C   0  0  0  0  0  0  0  0  0  0  0  0
  -23.0922   -4.9124    9.8536 C   0  0  0  0  0  0  0  0  0  0  0  0
  -21.7742   -3.8172   11.4302 C   0  0  0  0  0  0  0  0  0  0  0  0
  -24.2409   -3.9804   10.0855 C   0  0  0  0  0  0  0  0  0  0  0  0
  -24.0479   -3.0017   10.9792 C   0  0  0  0  0  0  0  0  0  0  0  0
  -22.5528   -1.8611   12.6192 C   0  0  0  0  0  0  0  0  0  0  0  0
  -20.5525   -3.7403   12.0999 C   0  0  0  0  0  0  0  0  0  0  0  0
  -20.3307   -2.7246   13.0283 C   0  0  0  0  0  0  0  0  0  0  0  0
  -21.3294   -1.7858   13.2872 C   0  0  0  0  0  0  0  0  0  0  0  0
  -25.5279   -4.8756    8.8198 H   0  0  0  0  0  0  0  0  0  0  0  0
  -24.3342   -0.9561   12.4673 H   0  0  0  0  0  0  0  0  0  0  0  0
  -18.4685   -3.2793   13.5078 H   0  0  0  0  0  0  0  0  0  0  0  0
  -23.7921   -8.9985    6.0530 O   0  0  0  0  0  0  0  0  0  0  0  0
  -23.2764   -5.9864    8.8498 C   0  0  0  0  0  0  0  0  0  0  0  0
  -23.5088   -5.6535    7.5201 C   0  0  0  0  0  0  0  0  0  0  0  0
  -23.2157   -7.3173    9.2473 C   0  0  0  0  0  0  0  0  0  0  0  0
  -23.6828   -6.6647    6.5754 C   0  0  0  0  0  0  0  0  0  0  0  0
  -23.3898   -8.3285    8.3024 C   0  0  0  0  0  0  0  0  0  0  0  0
  -23.6234   -8.0024    6.9665 C   0  0  0  0  0  0  0  0  0  0  0  0
  -23.9494   -8.7877    5.1537 H   0  0  0  0  0  0  0  0  0  0  0  0
  -23.9118   -6.3338    5.2740 O   0  0  0  0  0  0  0  0  0  0  0  0
  -24.6035   -5.1109    5.0282 C   0  0  0  0  0  0  0  0  0  0  0  0
  1  6  2  0  0  0
  1  7  1  0  0  0
  2  8  1  0  0  0
  3 10  1  0  0  0
 25 21  1  0  0  0
 25 26  1  0  0  0
  4 12  1  0  0  0
 17 23  1  0  0  0
  5  7  1  0  0  0
  5  9  1  0  0  0
  5 10  2  0  0  0
  6 18  1  0  0  0
  6  8  1  0  0  0
  7 11  2  0  0  0
 18 19  2  0  0  0
 18 20  1  0  0  0
  8  9  2  0  0  0
 10 13  1  0  0  0
 11 12  1  0  0  0
 19 21  1  0  0  0
 20 22  2  0  0  0
 12 13  2  0  0  0
 21 23  2  0  0  0
 22 23  1  0  0  0
  2 14  1  0  0  0
  3 15  1  0  0  0
  4 16  1  0  0  0
 17 24  1  0  0  0
M  CHG 1   1   1
M  END
> <PUBCHEM_COMPOUND_CID>
441773

> <PUBCHEM_CONFORMER_RMSD>
0.6

> <PUBCHEM_CONFORMER_DIVERSEORDER>
1
3
2

> <PUBCHEM_MMFF94_PARTIAL_CHARGES>
32
1 -0.87
10 0.09
11 0.09
12 -0.18
13 0.08
14 -0.15
15 -0.15
16 -0.15
17 0.08
18 -0.15
19 0.08
2 -0.53
20 -0.15
21 0.08
22 0.28
23 0.15
24 0.15
25 0.15
26 0.15
27 0.15
28 0.15
29 0.45
3 -0.53
30 0.45
31 0.45
32 0.45
4 -0.36
5 -0.53
6 -0.53
7 0.03
8 0.85
9 0.92

> <PUBCHEM_EFFECTIVE_ROTOR_COUNT>
2

> <PUBCHEM_PHARMACOPHORE_FEATURES>
8
1 2 donor
1 3 donor
1 4 acceptor
1 5 donor
1 6 donor
6 1 7 8 9 11 12 rings
6 10 15 16 19 20 21 rings
6 7 9 13 14 17 18 rings

> <PUBCHEM_HEAVY_ATOM_COUNT>
22

> <PUBCHEM_ATOM_DEF_STEREO_COUNT>
0

> <PUBCHEM_ATOM_UDEF_STEREO_COUNT>
0

> <PUBCHEM_BOND_DEF_STEREO_COUNT>
0

> <PUBCHEM_BOND_UDEF_STEREO_COUNT>
0

> <PUBCHEM_ISOTOPIC_ATOM_COUNT>
0

> <PUBCHEM_COMPONENT_COUNT>
1

> <PUBCHEM_CACTVS_TAUTO_COUNT>
183

> <PUBCHEM_CONFORMER_ID>
0006BDAD00000001

> <PUBCHEM_MMFF94_ENERGY>
80.5779

> <PUBCHEM_FEATURE_SELFOVERLAP>
40.627

> <PUBCHEM_SHAPE_FINGERPRINT>
10912923 1 17989205975170209907
11370993 144 18260277347542570843
11552529 35 18054231200596849499
11796584 16 16732695039135547138
12107183 9 17555749711141526987
12236239 1 17917428757066726999
12422481 6 17916032252339185533
12553582 1 18412262826938842830
12596602 18 17275384330673487034
12616971 3 18273497853547985026
12670546 56 17775000219511641289
12760667 363 18263359205362742050
13140716 1 17978505666112669072
13544653 18 18333731307988202948
13760787 5 18412824694291369756
14251732 14 14563111229060832251
14294032 229 16558204735480552657
14386348 63 17748823038224551159
14739800 52 16485830592908374440
14790565 3 17759532453510812500
15196674 1 18410005507844496236
15475509 84 17986682476090020768
15788980 27 18409444774004217007
17844677 252 18334575724270534124
17980427 23 17060622213847420145
1813 80 18341623589768061076
18785283 64 17461171120863698924
19078846 21 17346881156363918632
193927 3 18261395482233262594
200 152 18341321236754643191
20645477 70 18334846217459038806
20739085 24 18338531771666100100
21033648 29 17896021261178832397
21065198 48 18059859484506734857
21065201 7 16153696596904926590
21267235 1 18411700963849738606
212916 134 15913332364404711455
23175994 123 18040714775296478893
23557571 272 16878211000714365708
23559900 14 16877662361729266966
239999 70 17603584149676428618
2871803 45 18114175307574563858
312423 11 18337117761485141164
3411729 13 15768347587464821384
341906 21 15769783437564886379
345986 75 18129655297353673850
34797466 226 16443351983039226638
474 4 17841421832920691448
5104073 3 18202565094222890963
5281201 14 17822006502136193324
542803 24 17632300102721073027
573450 72 17275383218260944271
7064713 232 17275098414521367422
7495541 125 16515687792199983108

> <PUBCHEM_SHAPE_MULTIPOLES>
417.53
12.12
1.98
1.34
1.92
0.52
-0.2
-3.54
-2.91
-2.74
-0.03
2.74
-0.05
-1.04

> <PUBCHEM_SHAPE_SELFOVERLAP>
924.283

> <PUBCHEM_SHAPE_VOLUME>
222.2

> <PUBCHEM_COORDINATE_TYPE>
2
5
10

> <minimizedAffinity>
-4.58299

> <CNNscore>
0.3553362787

> <CNNaffinity>
4.5492043495

> <CNN_VS>
1.6164973974

> <CNNaffinity_variance>
0.2840662301

$$$$
441773


 26 28  0  0  0  0  0  0  0  0999 V2000
  -20.6594   -2.4683   14.6081 O   0  0  0  0  0  0  0  0  0  0  0  0
  -20.4714   -0.2882   11.6251 O   0  0  0  0  0  0  0  0  0  0  0  0
  -19.0133    1.8715   16.0429 O   0  0  0  0  0  0  0  0  0  0  0  0
  -19.7018   -1.5995   19.2224 O   0  0  0  0  0  0  0  0  0  0  0  0
  -19.8338   -0.2661   15.2877 C   0  0  0  0  0  0  0  0  0  0  0  0
  -20.6825   -2.0563   13.3713 C   0  0  0  0  0  0  0  0  0  0  0  0
  -20.2238   -1.5720   15.6023 C   0  0  0  0  0  0  0  0  0  0  0  0
  -20.3231   -0.6685   12.9390 C   0  0  0  0  0  0  0  0  0  0  0  0
  -19.9098    0.1701   13.8980 C   0  0  0  0  0  0  0  0  0  0  0  0
  -19.3996    0.5899   16.3041 C   0  0  0  0  0  0  0  0  0  0  0  0
  -20.1796   -2.0197   16.9230 C   0  0  0  0  0  0  0  0  0  0  0  0
  -19.7456   -1.1636   17.9338 C   0  0  0  0  0  0  0  0  0  0  0  0
  -19.3554    0.1394   17.6246 C   0  0  0  0  0  0  0  0  0  0  0  0
  -20.7637   -0.9097   10.9877 H   0  0  0  0  0  0  0  0  0  0  0  0
  -19.0340    2.1973   15.1646 H   0  0  0  0  0  0  0  0  0  0  0  0
  -19.9639   -2.4748   19.4300 H   0  0  0  0  0  0  0  0  0  0  0  0
  -22.3450   -5.6588    9.3853 O   0  0  0  0  0  0  0  0  0  0  0  0
  -21.1174   -3.0072   12.3216 C   0  0  0  0  0  0  0  0  0  0  0  0
  -20.2216   -3.9524   11.8349 C   0  0  0  0  0  0  0  0  0  0  0  0
  -22.4175   -2.9447   11.8328 C   0  0  0  0  0  0  0  0  0  0  0  0
  -20.6311   -4.8471   10.8464 C   0  0  0  0  0  0  0  0  0  0  0  0
  -22.8269   -3.8394   10.8441 C   0  0  0  0  0  0  0  0  0  0  0  0
  -21.9338   -4.7906   10.3508 C   0  0  0  0  0  0  0  0  0  0  0  0
  -21.7512   -6.3007    9.0487 H   0  0  0  0  0  0  0  0  0  0  0  0
  -19.7495   -5.7705   10.3715 O   0  0  0  0  0  0  0  0  0  0  0  0
  -18.5768   -6.0066   11.1483 C   0  0  0  0  0  0  0  0  0  0  0  0
  1  6  2  0  0  0
  1  7  1  0  0  0
  2  8  1  0  0  0
  3 10  1  0  0  0
 25 21  1  0  0  0
 25 26  1  0  0  0
  4 12  1  0  0  0
 17 23  1  0  0  0
  5  7  1  0  0  0
  5  9  1  0  0  0
  5 10  2  0  0  0
  6 18  1  0  0  0
  6  8  1  0  0  0
  7 11  2  0  0  0
 18 19  2  0  0  0
 18 20  1  0  0  0
  8  9  2  0  0  0
 10 13  1  0  0  0
 11 12  1  0  0  0
 19 21  1  0  0  0
 20 22  2  0  0  0
 12 13  2  0  0  0
 21 23  2  0  0  0
 22 23  1  0  0  0
  2 14  1  0  0  0
  3 15  1  0  0  0
  4 16  1  0  0  0
 17 24  1  0  0  0
M  CHG 1   1   1
M  END
> <PUBCHEM_COMPOUND_CID>
441773

> <PUBCHEM_CONFORMER_RMSD>
0.6

> <PUBCHEM_CONFORMER_DIVERSEORDER>
1
3
2

> <PUBCHEM_MMFF94_PARTIAL_CHARGES>
32
1 -0.87
10 0.09
11 0.09
12 -0.18
13 0.08
14 -0.15
15 -0.15
16 -0.15
17 0.08
18 -0.15
19 0.08
2 -0.53
20 -0.15
21 0.08
22 0.28
23 0.15
24 0.15
25 0.15
26 0.15
27 0.15
28 0.15
29 0.45
3 -0.53
30 0.45
31 0.45
32 0.45
4 -0.36
5 -0.53
6 -0.53
7 0.03
8 0.85
9 0.92

> <PUBCHEM_EFFECTIVE_ROTOR_COUNT>
2

> <PUBCHEM_PHARMACOPHORE_FEATURES>
8
1 2 donor
1 3 donor
1 4 acceptor
1 5 donor
1 6 donor
6 1 7 8 9 11 12 rings
6 10 15 16 19 20 21 rings
6 7 9 13 14 17 18 rings

> <PUBCHEM_HEAVY_ATOM_COUNT>
22

> <PUBCHEM_ATOM_DEF_STEREO_COUNT>
0

> <PUBCHEM_ATOM_UDEF_STEREO_COUNT>
0

> <PUBCHEM_BOND_DEF_STEREO_COUNT>
0

> <PUBCHEM_BOND_UDEF_STEREO_COUNT>
0

> <PUBCHEM_ISOTOPIC_ATOM_COUNT>
0

> <PUBCHEM_COMPONENT_COUNT>
1

> <PUBCHEM_CACTVS_TAUTO_COUNT>
183

> <PUBCHEM_CONFORMER_ID>
0006BDAD00000001

> <PUBCHEM_MMFF94_ENERGY>
80.5779

> <PUBCHEM_FEATURE_SELFOVERLAP>
40.627

> <PUBCHEM_SHAPE_FINGERPRINT>
10912923 1 17989205975170209907
11370993 144 18260277347542570843
11552529 35 18054231200596849499
11796584 16 16732695039135547138
12107183 9 17555749711141526987
12236239 1 17917428757066726999
12422481 6 17916032252339185533
12553582 1 18412262826938842830
12596602 18 17275384330673487034
12616971 3 18273497853547985026
12670546 56 17775000219511641289
12760667 363 18263359205362742050
13140716 1 17978505666112669072
13544653 18 18333731307988202948
13760787 5 18412824694291369756
14251732 14 14563111229060832251
14294032 229 16558204735480552657
14386348 63 17748823038224551159
14739800 52 16485830592908374440
14790565 3 17759532453510812500
15196674 1 18410005507844496236
15475509 84 17986682476090020768
15788980 27 18409444774004217007
17844677 252 18334575724270534124
17980427 23 17060622213847420145
1813 80 18341623589768061076
18785283 64 17461171120863698924
19078846 21 17346881156363918632
193927 3 18261395482233262594
200 152 18341321236754643191
20645477 70 18334846217459038806
20739085 24 18338531771666100100
21033648 29 17896021261178832397
21065198 48 18059859484506734857
21065201 7 16153696596904926590
21267235 1 18411700963849738606
212916 134 15913332364404711455
23175994 123 18040714775296478893
23557571 272 16878211000714365708
23559900 14 16877662361729266966
239999 70 17603584149676428618
2871803 45 18114175307574563858
312423 11 18337117761485141164
3411729 13 15768347587464821384
341906 21 15769783437564886379
345986 75 18129655297353673850
34797466 226 16443351983039226638
474 4 17841421832920691448
5104073 3 18202565094222890963
5281201 14 17822006502136193324
542803 24 17632300102721073027
573450 72 17275383218260944271
7064713 232 17275098414521367422
7495541 125 16515687792199983108

> <PUBCHEM_SHAPE_MULTIPOLES>
417.53
12.12
1.98
1.34
1.92
0.52
-0.2
-3.54
-2.91
-2.74
-0.03
2.74
-0.05
-1.04

> <PUBCHEM_SHAPE_SELFOVERLAP>
924.283

> <PUBCHEM_SHAPE_VOLUME>
222.2

> <PUBCHEM_COORDINATE_TYPE>
2
5
10

> <minimizedAffinity>
-7.35050

> <CNNscore>
0.3510024548

> <CNNaffinity>
4.7417931557

> <CNN_VS>
1.6643810272

> <CNNaffinity_variance>
0.0770447254

$$$$
441773


 26 28  0  0  0  0  0  0  0  0999 V2000
  -25.1982   -2.8595   12.1532 O   0  0  0  0  0  0  0  0  0  0  0  0
  -24.5188   -2.2646    8.5656 O   0  0  0  0  0  0  0  0  0  0  0  0
  -26.7068    1.6326   11.0820 O   0  0  0  0  0  0  0  0  0  0  0  0
  -27.2654   -0.0968   15.4784 O   0  0  0  0  0  0  0  0  0  0  0  0
  -25.9459   -0.6026   11.5695 C   0  0  0  0  0  0  0  0  0  0  0  0
  -24.7668   -3.0112   10.9322 C   0  0  0  0  0  0  0  0  0  0  0  0
  -25.7985   -1.6350   12.5017 C   0  0  0  0  0  0  0  0  0  0  0  0
  -24.9131   -1.9833    9.8534 C   0  0  0  0  0  0  0  0  0  0  0  0
  -25.4854   -0.8242   10.2034 C   0  0  0  0  0  0  0  0  0  0  0  0
  -26.5404    0.6012   11.9587 C   0  0  0  0  0  0  0  0  0  0  0  0
  -26.2415   -1.4653   13.8139 C   0  0  0  0  0  0  0  0  0  0  0  0
  -26.8333   -0.2634   14.1986 C   0  0  0  0  0  0  0  0  0  0  0  0
  -26.9820    0.7689   13.2723 C   0  0  0  0  0  0  0  0  0  0  0  0
  -24.1221   -3.0899    8.3668 H   0  0  0  0  0  0  0  0  0  0  0  0
  -26.4187    1.5444   10.1948 H   0  0  0  0  0  0  0  0  0  0  0  0
  -27.1655   -0.7903   16.1006 H   0  0  0  0  0  0  0  0  0  0  0  0
  -22.2723   -7.8644    9.5702 O   0  0  0  0  0  0  0  0  0  0  0  0
  -24.1126   -4.2909   10.5718 C   0  0  0  0  0  0  0  0  0  0  0  0
  -24.8707   -5.3234   10.0315 C   0  0  0  0  0  0  0  0  0  0  0  0
  -22.7466   -4.4471   10.7779 C   0  0  0  0  0  0  0  0  0  0  0  0
  -24.2548   -6.5281    9.6928 C   0  0  0  0  0  0  0  0  0  0  0  0
  -22.1307   -5.6519   10.4393 C   0  0  0  0  0  0  0  0  0  0  0  0
  -22.8847   -6.6925    9.8968 C   0  0  0  0  0  0  0  0  0  0  0  0
  -22.7718   -8.5683    9.2053 H   0  0  0  0  0  0  0  0  0  0  0  0
  -25.0019   -7.5375    9.1651 O   0  0  0  0  0  0  0  0  0  0  0  0
  -25.7980   -7.2262    8.0234 C   0  0  0  0  0  0  0  0  0  0  0  0
  1  6  2  0  0  0
  1  7  1  0  0  0
  2  8  1  0  0  0
  3 10  1  0  0  0
 25 21  1  0  0  0
 25 26  1  0  0  0
  4 12  1  0  0  0
 17 23  1  0  0  0
  5  7  1  0  0  0
  5  9  1  0  0  0
  5 10  2  0  0  0
  6 18  1  0  0  0
  6  8  1  0  0  0
  7 11  2  0  0  0
 18 19  2  0  0  0
 18 20  1  0  0  0
  8  9  2  0  0  0
 10 13  1  0  0  0
 11 12  1  0  0  0
 19 21  1  0  0  0
 20 22  2  0  0  0
 12 13  2  0  0  0
 21 23  2  0  0  0
 22 23  1  0  0  0
  2 14  1  0  0  0
  3 15  1  0  0  0
  4 16  1  0  0  0
 17 24  1  0  0  0
M  CHG 1   1   1
M  END
> <PUBCHEM_COMPOUND_CID>
441773

> <PUBCHEM_CONFORMER_RMSD>
0.6

> <PUBCHEM_CONFORMER_DIVERSEORDER>
1
3
2

> <PUBCHEM_MMFF94_PARTIAL_CHARGES>
32
1 -0.87
10 0.09
11 0.09
12 -0.18
13 0.08
14 -0.15
15 -0.15
16 -0.15
17 0.08
18 -0.15
19 0.08
2 -0.53
20 -0.15
21 0.08
22 0.28
23 0.15
24 0.15
25 0.15
26 0.15
27 0.15
28 0.15
29 0.45
3 -0.53
30 0.45
31 0.45
32 0.45
4 -0.36
5 -0.53
6 -0.53
7 0.03
8 0.85
9 0.92

> <PUBCHEM_EFFECTIVE_ROTOR_COUNT>
2

> <PUBCHEM_PHARMACOPHORE_FEATURES>
8
1 2 donor
1 3 donor
1 4 acceptor
1 5 donor
1 6 donor
6 1 7 8 9 11 12 rings
6 10 15 16 19 20 21 rings
6 7 9 13 14 17 18 rings

> <PUBCHEM_HEAVY_ATOM_COUNT>
22

> <PUBCHEM_ATOM_DEF_STEREO_COUNT>
0

> <PUBCHEM_ATOM_UDEF_STEREO_COUNT>
0

> <PUBCHEM_BOND_DEF_STEREO_COUNT>
0

> <PUBCHEM_BOND_UDEF_STEREO_COUNT>
0

> <PUBCHEM_ISOTOPIC_ATOM_COUNT>
0

> <PUBCHEM_COMPONENT_COUNT>
1

> <PUBCHEM_CACTVS_TAUTO_COUNT>
183

> <PUBCHEM_CONFORMER_ID>
0006BDAD00000001

> <PUBCHEM_MMFF94_ENERGY>
80.5779

> <PUBCHEM_FEATURE_SELFOVERLAP>
40.627

> <PUBCHEM_SHAPE_FINGERPRINT>
10912923 1 17989205975170209907
11370993 144 18260277347542570843
11552529 35 18054231200596849499
11796584 16 16732695039135547138
12107183 9 17555749711141526987
12236239 1 17917428757066726999
12422481 6 17916032252339185533
12553582 1 18412262826938842830
12596602 18 17275384330673487034
12616971 3 18273497853547985026
12670546 56 17775000219511641289
12760667 363 18263359205362742050
13140716 1 17978505666112669072
13544653 18 18333731307988202948
13760787 5 18412824694291369756
14251732 14 14563111229060832251
14294032 229 16558204735480552657
14386348 63 17748823038224551159
14739800 52 16485830592908374440
14790565 3 17759532453510812500
15196674 1 18410005507844496236
15475509 84 17986682476090020768
15788980 27 18409444774004217007
17844677 252 18334575724270534124
17980427 23 17060622213847420145
1813 80 18341623589768061076
18785283 64 17461171120863698924
19078846 21 17346881156363918632
193927 3 18261395482233262594
200 152 18341321236754643191
20645477 70 18334846217459038806
20739085 24 18338531771666100100
21033648 29 17896021261178832397
21065198 48 18059859484506734857
21065201 7 16153696596904926590
21267235 1 18411700963849738606
212916 134 15913332364404711455
23175994 123 18040714775296478893
23557571 272 16878211000714365708
23559900 14 16877662361729266966
239999 70 17603584149676428618
2871803 45 18114175307574563858
312423 11 18337117761485141164
3411729 13 15768347587464821384
341906 21 15769783437564886379
345986 75 18129655297353673850
34797466 226 16443351983039226638
474 4 17841421832920691448
5104073 3 18202565094222890963
5281201 14 17822006502136193324
542803 24 17632300102721073027
573450 72 17275383218260944271
7064713 232 17275098414521367422
7495541 125 16515687792199983108

> <PUBCHEM_SHAPE_MULTIPOLES>
417.53
12.12
1.98
1.34
1.92
0.52
-0.2
-3.54
-2.91
-2.74
-0.03
2.74
-0.05
-1.04

> <PUBCHEM_SHAPE_SELFOVERLAP>
924.283

> <PUBCHEM_SHAPE_VOLUME>
222.2

> <PUBCHEM_COORDINATE_TYPE>
2
5
10

> <minimizedAffinity>
-5.00918

> <CNNscore>
0.3479367197

> <CNNaffinity>
4.2186579704

> <CNN_VS>
1.4678260088

> <CNNaffinity_variance>
0.1157394275

$$$$
441773


 26 28  0  0  0  0  0  0  0  0999 V2000
  -22.6882   -6.0938   10.0100 O   0  0  0  0  0  0  0  0  0  0  0  0
  -25.3307   -3.5622    9.4677 O   0  0  0  0  0  0  0  0  0  0  0  0
  -21.2038   -1.9397   12.0453 O   0  0  0  0  0  0  0  0  0  0  0  0
  -18.4986   -5.8430   12.3225 O   0  0  0  0  0  0  0  0  0  0  0  0
  -21.9800   -3.9807   11.0232 C   0  0  0  0  0  0  0  0  0  0  0  0
  -23.7713   -5.5048    9.5858 C   0  0  0  0  0  0  0  0  0  0  0  0
  -21.7570   -5.3325   10.7412 C   0  0  0  0  0  0  0  0  0  0  0  0
  -24.1192   -4.0763    9.8688 C   0  0  0  0  0  0  0  0  0  0  0  0
  -23.2212   -3.3670   10.5646 C   0  0  0  0  0  0  0  0  0  0  0  0
  -21.0258   -3.2581   11.7455 C   0  0  0  0  0  0  0  0  0  0  0  0
  -20.5884   -5.9577   11.1774 C   0  0  0  0  0  0  0  0  0  0  0  0
  -19.6390   -5.2340   11.8969 C   0  0  0  0  0  0  0  0  0  0  0  0
  -19.8571   -3.8857   12.1800 C   0  0  0  0  0  0  0  0  0  0  0  0
  -25.9285   -4.0959    8.9821 H   0  0  0  0  0  0  0  0  0  0  0  0
  -21.9800   -1.4961   11.7647 H   0  0  0  0  0  0  0  0  0  0  0  0
  -18.3522   -6.7487   12.1322 H   0  0  0  0  0  0  0  0  0  0  0  0
  -27.4574   -8.5199    6.5937 O   0  0  0  0  0  0  0  0  0  0  0  0
  -24.7399   -6.2996    8.7950 C   0  0  0  0  0  0  0  0  0  0  0  0
  -24.4284   -6.6644    7.4901 C   0  0  0  0  0  0  0  0  0  0  0  0
  -25.9517   -6.6727    9.3654 C   0  0  0  0  0  0  0  0  0  0  0  0
  -25.3406   -7.4120    6.7457 C   0  0  0  0  0  0  0  0  0  0  0  0
  -26.8640   -7.4203    8.6208 C   0  0  0  0  0  0  0  0  0  0  0  0
  -26.5586   -7.7900    7.3110 C   0  0  0  0  0  0  0  0  0  0  0  0
  -27.2598   -8.7722    5.7132 H   0  0  0  0  0  0  0  0  0  0  0  0
  -25.0317   -7.7658    5.4670 O   0  0  0  0  0  0  0  0  0  0  0  0
  -23.9411   -8.6676    5.2894 C   0  0  0  0  0  0  0  0  0  0  0  0
  1  6  2  0  0  0
  1  7  1  0  0  0
  2  8  1  0  0  0
  3 10  1  0  0  0
 25 21  1  0  0  0
 25 26  1  0  0  0
  4 12  1  0  0  0
 17 23  1  0  0  0
  5  7  1  0  0  0
  5  9  1  0  0  0
  5 10  2  0  0  0
  6 18  1  0  0  0
  6  8  1  0  0  0
  7 11  2  0  0  0
 18 19  2  0  0  0
 18 20  1  0  0  0
  8  9  2  0  0  0
 10 13  1  0  0  0
 11 12  1  0  0  0
 19 21  1  0  0  0
 20 22  2  0  0  0
 12 13  2  0  0  0
 21 23  2  0  0  0
 22 23  1  0  0  0
  2 14  1  0  0  0
  3 15  1  0  0  0
  4 16  1  0  0  0
 17 24  1  0  0  0
M  CHG 1   1   1
M  END
> <PUBCHEM_COMPOUND_CID>
441773

> <PUBCHEM_CONFORMER_RMSD>
0.6

> <PUBCHEM_CONFORMER_DIVERSEORDER>
1
3
2

> <PUBCHEM_MMFF94_PARTIAL_CHARGES>
32
1 -0.87
10 0.09
11 0.09
12 -0.18
13 0.08
14 -0.15
15 -0.15
16 -0.15
17 0.08
18 -0.15
19 0.08
2 -0.53
20 -0.15
21 0.08
22 0.28
23 0.15
24 0.15
25 0.15
26 0.15
27 0.15
28 0.15
29 0.45
3 -0.53
30 0.45
31 0.45
32 0.45
4 -0.36
5 -0.53
6 -0.53
7 0.03
8 0.85
9 0.92

> <PUBCHEM_EFFECTIVE_ROTOR_COUNT>
2

> <PUBCHEM_PHARMACOPHORE_FEATURES>
8
1 2 donor
1 3 donor
1 4 acceptor
1 5 donor
1 6 donor
6 1 7 8 9 11 12 rings
6 10 15 16 19 20 21 rings
6 7 9 13 14 17 18 rings

> <PUBCHEM_HEAVY_ATOM_COUNT>
22

> <PUBCHEM_ATOM_DEF_STEREO_COUNT>
0

> <PUBCHEM_ATOM_UDEF_STEREO_COUNT>
0

> <PUBCHEM_BOND_DEF_STEREO_COUNT>
0

> <PUBCHEM_BOND_UDEF_STEREO_COUNT>
0

> <PUBCHEM_ISOTOPIC_ATOM_COUNT>
0

> <PUBCHEM_COMPONENT_COUNT>
1

> <PUBCHEM_CACTVS_TAUTO_COUNT>
183

> <PUBCHEM_CONFORMER_ID>
0006BDAD00000001

> <PUBCHEM_MMFF94_ENERGY>
80.5779

> <PUBCHEM_FEATURE_SELFOVERLAP>
40.627

> <PUBCHEM_SHAPE_FINGERPRINT>
10912923 1 17989205975170209907
11370993 144 18260277347542570843
11552529 35 18054231200596849499
11796584 16 16732695039135547138
12107183 9 17555749711141526987
12236239 1 17917428757066726999
12422481 6 17916032252339185533
12553582 1 18412262826938842830
12596602 18 17275384330673487034
12616971 3 18273497853547985026
12670546 56 17775000219511641289
12760667 363 18263359205362742050
13140716 1 17978505666112669072
13544653 18 18333731307988202948
13760787 5 18412824694291369756
14251732 14 14563111229060832251
14294032 229 16558204735480552657
14386348 63 17748823038224551159
14739800 52 16485830592908374440
14790565 3 17759532453510812500
15196674 1 18410005507844496236
15475509 84 17986682476090020768
15788980 27 18409444774004217007
17844677 252 18334575724270534124
17980427 23 17060622213847420145
1813 80 18341623589768061076
18785283 64 17461171120863698924
19078846 21 17346881156363918632
193927 3 18261395482233262594
200 152 18341321236754643191
20645477 70 18334846217459038806
20739085 24 18338531771666100100
21033648 29 17896021261178832397
21065198 48 18059859484506734857
21065201 7 16153696596904926590
21267235 1 18411700963849738606
212916 134 15913332364404711455
23175994 123 18040714775296478893
23557571 272 16878211000714365708
23559900 14 16877662361729266966
239999 70 17603584149676428618
2871803 45 18114175307574563858
312423 11 18337117761485141164
3411729 13 15768347587464821384
341906 21 15769783437564886379
345986 75 18129655297353673850
34797466 226 16443351983039226638
474 4 17841421832920691448
5104073 3 18202565094222890963
5281201 14 17822006502136193324
542803 24 17632300102721073027
573450 72 17275383218260944271
7064713 232 17275098414521367422
7495541 125 16515687792199983108

> <PUBCHEM_SHAPE_MULTIPOLES>
417.53
12.12
1.98
1.34
1.92
0.52
-0.2
-3.54
-2.91
-2.74
-0.03
2.74
-0.05
-1.04

> <PUBCHEM_SHAPE_SELFOVERLAP>
924.283

> <PUBCHEM_SHAPE_VOLUME>
222.2

> <PUBCHEM_COORDINATE_TYPE>
2
5
10

> <minimizedAffinity>
-4.45603

> <CNNscore>
0.3397567570

> <CNNaffinity>
4.4174752235

> <CNN_VS>
1.5008670092

> <CNNaffinity_variance>
0.1089343280

$$$$
