441774


 28 30  0  0  0  0  0  0  0  0999 V2000
  -22.9209   -3.0055   11.3940 O   0  0  0  0  0  0  0  0  0  0  0  0
  -20.9277   -0.9960   13.7764 O   0  0  0  0  0  0  0  0  0  0  0  0
  -18.9054   -5.5227   12.4624 O   0  0  0  0  0  0  0  0  0  0  0  0
  -22.1730   -7.3569    9.5316 O   0  0  0  0  0  0  0  0  0  0  0  0
  -22.5076   -2.0197   12.1407 C   0  0  0  0  0  0  0  0  0  0  0  0
  -20.8844   -4.2402   11.9611 C   0  0  0  0  0  0  0  0  0  0  0  0
  -22.1045   -4.1469   11.2837 C   0  0  0  0  0  0  0  0  0  0  0  0
  -21.2388   -2.0396   12.9354 C   0  0  0  0  0  0  0  0  0  0  0  0
  -20.4744   -3.1328   12.8172 C   0  0  0  0  0  0  0  0  0  0  0  0
  -20.0997   -5.3883   11.8180 C   0  0  0  0  0  0  0  0  0  0  0  0
  -22.5372   -5.1931   10.4680 C   0  0  0  0  0  0  0  0  0  0  0  0
  -21.7519   -6.3360   10.3271 C   0  0  0  0  0  0  0  0  0  0  0  0
  -20.5344   -6.4331   11.0006 C   0  0  0  0  0  0  0  0  0  0  0  0
  -21.4928   -0.2503   13.8266 H   0  0  0  0  0  0  0  0  0  0  0  0
  -18.5921   -4.8351   13.0166 H   0  0  0  0  0  0  0  0  0  0  0  0
  -22.9910   -7.2916    9.0792 H   0  0  0  0  0  0  0  0  0  0  0  0
  -23.1776    2.7467   11.4360 O   0  0  0  0  0  0  0  0  0  0  0  0
  -25.7265    2.5797   12.5063 O   0  0  0  0  0  0  0  0  0  0  0  0
  -23.3549   -0.8082   12.2374 C   0  0  0  0  0  0  0  0  0  0  0  0
  -24.6326   -0.9034   12.7773 C   0  0  0  0  0  0  0  0  0  0  0  0
  -22.8650    0.4127   11.7873 C   0  0  0  0  0  0  0  0  0  0  0  0
  -25.4307    0.2371   12.8685 C   0  0  0  0  0  0  0  0  0  0  0  0
  -23.6630    1.5530   11.8783 C   0  0  0  0  0  0  0  0  0  0  0  0
  -24.9458    1.4653   12.4190 C   0  0  0  0  0  0  0  0  0  0  0  0
  -22.3147    2.7964   11.0742 H   0  0  0  0  0  0  0  0  0  0  0  0
  -26.5882    2.5207   12.8695 H   0  0  0  0  0  0  0  0  0  0  0  0
  -26.6819    0.1379   13.3982 O   0  0  0  0  0  0  0  0  0  0  0  0
  -27.0425   -1.1142   13.9781 C   0  0  0  0  0  0  0  0  0  0  0  0
  1  5  2  0  0  0
  1  7  1  0  0  0
  2  8  1  0  0  0
 27 22  1  0  0  0
 27 28  1  0  0  0
  3 10  1  0  0  0
 17 23  1  0  0  0
  4 12  1  0  0  0
 18 24  1  0  0  0
  5 19  1  0  0  0
  5  8  1  0  0  0
  6  7  1  0  0  0
  6  9  1  0  0  0
  6 10  2  0  0  0
 19 20  1  0  0  0
 19 21  2  0  0  0
  7 11  2  0  0  0
  8  9  2  0  0  0
 10 13  1  0  0  0
 20 22  2  0  0  0
 21 23  1  0  0  0
 11 12  1  0  0  0
 22 24  1  0  0  0
 23 24  2  0  0  0
 12 13  2  0  0  0
  2 14  1  0  0  0
  3 15  1  0  0  0
 17 25  1  0  0  0
  4 16  1  0  0  0
 18 26  1  0  0  0
M  CHG 1   1   1
M  END
> <PUBCHEM_COMPOUND_CID>
441774

> <PUBCHEM_CONFORMER_RMSD>
0.6

> <PUBCHEM_CONFORMER_DIVERSEORDER>
1
2

> <PUBCHEM_MMFF94_PARTIAL_CHARGES>
33
1 -0.87
10 0.09
11 0.92
12 0.09
13 -0.18
14 0.08
15 -0.15
16 -0.15
17 -0.15
18 0.08
19 0.08
2 -0.53
20 0.08
21 -0.15
22 0.08
23 0.28
24 0.15
25 0.15
26 0.15
27 0.15
28 0.15
29 0.45
3 -0.36
30 0.45
31 0.45
32 0.45
33 0.45
4 -0.53
5 -0.53
6 -0.53
7 -0.53
8 0.85
9 0.03

> <PUBCHEM_EFFECTIVE_ROTOR_COUNT>
2

> <PUBCHEM_PHARMACOPHORE_FEATURES>
9
1 2 donor
1 3 acceptor
1 4 donor
1 5 donor
1 6 donor
1 7 donor
6 1 8 9 11 12 13 rings
6 10 15 16 18 19 22 rings
6 9 11 14 17 20 21 rings

> <PUBCHEM_HEAVY_ATOM_COUNT>
23

> <PUBCHEM_ATOM_DEF_STEREO_COUNT>
0

> <PUBCHEM_ATOM_UDEF_STEREO_COUNT>
0

> <PUBCHEM_BOND_DEF_STEREO_COUNT>
0

> <PUBCHEM_BOND_UDEF_STEREO_COUNT>
0

> <PUBCHEM_ISOTOPIC_ATOM_COUNT>
0

> <PUBCHEM_COMPONENT_COUNT>
1

> <PUBCHEM_CACTVS_TAUTO_COUNT>
524

> <PUBCHEM_CONFORMER_ID>
0006BDAE00000001

> <PUBCHEM_MMFF94_ENERGY>
82.7579

> <PUBCHEM_FEATURE_SELFOVERLAP>
45.708

> <PUBCHEM_SHAPE_FINGERPRINT>
10912923 1 18131632309212088930
12107183 9 17413607051099704995
12236239 1 18130788988362787167
12403259 118 14979661204922435514
12403259 415 17167865261783231314
12422481 6 18057051206949427141
12553582 1 18408888425779565454
12616971 3 18342459218673690098
12633257 1 17346600755060518784
12670546 56 17989203771794166409
13134695 92 18336260232077403220
13140716 1 17975697509188966056
13544653 18 18259704484509341396
13760787 5 18409448094230162694
13782708 43 17023194867965111643
14294032 229 16988298491241307313
14386348 63 17385722517206625483
14739800 52 16843868966718771648
15475509 84 18127984005468266680
15788980 27 18408601448422162911
17349148 13 17988358264759012383
17357779 13 18040703762678552804
17844677 252 18187083936096515452
1813 80 18339091410268107180
18785283 64 17170694438240562356
19489759 90 16128655241421038055
200 152 18410566284285665063
20511986 3 18130777945859568121
20645477 70 18187075157536893806
20739085 24 18263099767947564516
21033648 29 17531514469025887261
21065198 48 18273501182100010977
21065201 7 15430027747522910842
21267235 1 18408605834375335758
2297311 6 15285648681457862187
23175994 123 17821447967372430141
23402539 116 18410569552782287355
23557571 272 15338854087490602249
23559900 14 16081918253404357378
23569914 2 15695428886786424744
2871803 45 17895188875305476146
312423 11 18262245413443155132
3411729 13 16270501153640857936
341906 21 16271934787247433577
345986 75 18270955735804815504
34797466 226 15554172591935036928
46194498 28 17023463178407961631
5104073 3 18343587351646970827
5281201 14 17240201036636978286
573450 72 17561362889662643847
602551 16 16056592218243930734
7064713 232 17561359556879129942
7495541 125 16226053339794507908
77492 1 18059859510361019133
9849439 229 15980917012492831545

> <PUBCHEM_SHAPE_MULTIPOLES>
432.24
12.26
1.96
1.58
0.93
0.5
0.08
-3.06
2.81
2.15
-0.1
-3.12
-0.08
-2.36

> <PUBCHEM_SHAPE_SELFOVERLAP>
958.326

> <PUBCHEM_SHAPE_VOLUME>
229.9

> <PUBCHEM_COORDINATE_TYPE>
2
5
10

> <minimizedAffinity>
-5.52160

> <CNNscore>
0.5013366938

> <CNNaffinity>
4.5414080620

> <CNN_VS>
2.2767744064

> <CNNaffinity_variance>
0.0795794725

$$$$
