441774


 28 30  0  0  0  0  0  0  0  0999 V2000
  -22.9209   -3.0055   11.3940 O   0  0  0  0  0  0  0  0  0  0  0  0
  -20.9277   -0.9960   13.7764 O   0  0  0  0  0  0  0  0  0  0  0  0
  -18.9054   -5.5227   12.4624 O   0  0  0  0  0  0  0  0  0  0  0  0
  -22.1730   -7.3569    9.5316 O   0  0  0  0  0  0  0  0  0  0  0  0
  -22.5076   -2.0197   12.1407 C   0  0  0  0  0  0  0  0  0  0  0  0
  -20.8844   -4.2402   11.9611 C   0  0  0  0  0  0  0  0  0  0  0  0
  -22.1045   -4.1469   11.2837 C   0  0  0  0  0  0  0  0  0  0  0  0
  -21.2388   -2.0396   12.9354 C   0  0  0  0  0  0  0  0  0  0  0  0
  -20.4744   -3.1328   12.8172 C   0  0  0  0  0  0  0  0  0  0  0  0
  -20.0997   -5.3883   11.8180 C   0  0  0  0  0  0  0  0  0  0  0  0
  -22.5372   -5.1931   10.4680 C   0  0  0  0  0  0  0  0  0  0  0  0
  -21.7519   -6.3360   10.3271 C   0  0  0  0  0  0  0  0  0  0  0  0
  -20.5344   -6.4331   11.0006 C   0  0  0  0  0  0  0  0  0  0  0  0
  -21.4928   -0.2503   13.8266 H   0  0  0  0  0  0  0  0  0  0  0  0
  -18.5921   -4.8351   13.0166 H   0  0  0  0  0  0  0  0  0  0  0  0
  -22.9910   -7.2916    9.0792 H   0  0  0  0  0  0  0  0  0  0  0  0
  -23.1776    2.7467   11.4360 O   0  0  0  0  0  0  0  0  0  0  0  0
  -25.7265    2.5797   12.5063 O   0  0  0  0  0  0  0  0  0  0  0  0
  -23.3549   -0.8082   12.2374 C   0  0  0  0  0  0  0  0  0  0  0  0
  -24.6326   -0.9034   12.7773 C   0  0  0  0  0  0  0  0  0  0  0  0
  -22.8650    0.4127   11.7873 C   0  0  0  0  0  0  0  0  0  0  0  0
  -25.4307    0.2371   12.8685 C   0  0  0  0  0  0  0  0  0  0  0  0
  -23.6630    1.5530   11.8783 C   0  0  0  0  0  0  0  0  0  0  0  0
  -24.9458    1.4653   12.4190 C   0  0  0  0  0  0  0  0  0  0  0  0
  -22.3147    2.7964   11.0742 H   0  0  0  0  0  0  0  0  0  0  0  0
  -26.5882    2.5207   12.8695 H   0  0  0  0  0  0  0  0  0  0  0  0
  -26.6819    0.1379   13.3982 O   0  0  0  0  0  0  0  0  0  0  0  0
  -27.0425   -1.1142   13.9781 C   0  0  0  0  0  0  0  0  0  0  0  0
  1  5  2  0  0  0
  1  7  1  0  0  0
  2  8  1  0  0  0
 27 22  1  0  0  0
 27 28  1  0  0  0
  3 10  1  0  0  0
 17 23  1  0  0  0
  4 12  1  0  0  0
 18 24  1  0  0  0
  5 19  1  0  0  0
  5  8  1  0  0  0
  6  7  1  0  0  0
  6  9  1  0  0  0
  6 10  2  0  0  0
 19 20  1  0  0  0
 19 21  2  0  0  0
  7 11  2  0  0  0
  8  9  2  0  0  0
 10 13  1  0  0  0
 20 22  2  0  0  0
 21 23  1  0  0  0
 11 12  1  0  0  0
 22 24  1  0  0  0
 23 24  2  0  0  0
 12 13  2  0  0  0
  2 14  1  0  0  0
  3 15  1  0  0  0
 17 25  1  0  0  0
  4 16  1  0  0  0
 18 26  1  0  0  0
M  CHG 1   1   1
M  END
> <PUBCHEM_COMPOUND_CID>
441774

> <PUBCHEM_CONFORMER_RMSD>
0.6

> <PUBCHEM_CONFORMER_DIVERSEORDER>
1
2

> <PUBCHEM_MMFF94_PARTIAL_CHARGES>
33
1 -0.87
10 0.09
11 0.92
12 0.09
13 -0.18
14 0.08
15 -0.15
16 -0.15
17 -0.15
18 0.08
19 0.08
2 -0.53
20 0.08
21 -0.15
22 0.08
23 0.28
24 0.15
25 0.15
26 0.15
27 0.15
28 0.15
29 0.45
3 -0.36
30 0.45
31 0.45
32 0.45
33 0.45
4 -0.53
5 -0.53
6 -0.53
7 -0.53
8 0.85
9 0.03

> <PUBCHEM_EFFECTIVE_ROTOR_COUNT>
2

> <PUBCHEM_PHARMACOPHORE_FEATURES>
9
1 2 donor
1 3 acceptor
1 4 donor
1 5 donor
1 6 donor
1 7 donor
6 1 8 9 11 12 13 rings
6 10 15 16 18 19 22 rings
6 9 11 14 17 20 21 rings

> <PUBCHEM_HEAVY_ATOM_COUNT>
23

> <PUBCHEM_ATOM_DEF_STEREO_COUNT>
0

> <PUBCHEM_ATOM_UDEF_STEREO_COUNT>
0

> <PUBCHEM_BOND_DEF_STEREO_COUNT>
0

> <PUBCHEM_BOND_UDEF_STEREO_COUNT>
0

> <PUBCHEM_ISOTOPIC_ATOM_COUNT>
0

> <PUBCHEM_COMPONENT_COUNT>
1

> <PUBCHEM_CACTVS_TAUTO_COUNT>
524

> <PUBCHEM_CONFORMER_ID>
0006BDAE00000001

> <PUBCHEM_MMFF94_ENERGY>
82.7579

> <PUBCHEM_FEATURE_SELFOVERLAP>
45.708

> <PUBCHEM_SHAPE_FINGERPRINT>
10912923 1 18131632309212088930
12107183 9 17413607051099704995
12236239 1 18130788988362787167
12403259 118 14979661204922435514
12403259 415 17167865261783231314
12422481 6 18057051206949427141
12553582 1 18408888425779565454
12616971 3 18342459218673690098
12633257 1 17346600755060518784
12670546 56 17989203771794166409
13134695 92 18336260232077403220
13140716 1 17975697509188966056
13544653 18 18259704484509341396
13760787 5 18409448094230162694
13782708 43 17023194867965111643
14294032 229 16988298491241307313
14386348 63 17385722517206625483
14739800 52 16843868966718771648
15475509 84 18127984005468266680
15788980 27 18408601448422162911
17349148 13 17988358264759012383
17357779 13 18040703762678552804
17844677 252 18187083936096515452
1813 80 18339091410268107180
18785283 64 17170694438240562356
19489759 90 16128655241421038055
200 152 18410566284285665063
20511986 3 18130777945859568121
20645477 70 18187075157536893806
20739085 24 18263099767947564516
21033648 29 17531514469025887261
21065198 48 18273501182100010977
21065201 7 15430027747522910842
21267235 1 18408605834375335758
2297311 6 15285648681457862187
23175994 123 17821447967372430141
23402539 116 18410569552782287355
23557571 272 15338854087490602249
23559900 14 16081918253404357378
23569914 2 15695428886786424744
2871803 45 17895188875305476146
312423 11 18262245413443155132
3411729 13 16270501153640857936
341906 21 16271934787247433577
345986 75 18270955735804815504
34797466 226 15554172591935036928
46194498 28 17023463178407961631
5104073 3 18343587351646970827
5281201 14 17240201036636978286
573450 72 17561362889662643847
602551 16 16056592218243930734
7064713 232 17561359556879129942
7495541 125 16226053339794507908
77492 1 18059859510361019133
9849439 229 15980917012492831545

> <PUBCHEM_SHAPE_MULTIPOLES>
432.24
12.26
1.96
1.58
0.93
0.5
0.08
-3.06
2.81
2.15
-0.1
-3.12
-0.08
-2.36

> <PUBCHEM_SHAPE_SELFOVERLAP>
958.326

> <PUBCHEM_SHAPE_VOLUME>
229.9

> <PUBCHEM_COORDINATE_TYPE>
2
5
10

> <minimizedAffinity>
-5.52160

> <CNNscore>
0.5013366938

> <CNNaffinity>
4.5414080620

> <CNN_VS>
2.2767744064

> <CNNaffinity_variance>
0.0795794725

$$$$
441774


 28 30  0  0  0  0  0  0  0  0999 V2000
  -23.6690   -3.3185   11.5975 O   0  0  0  0  0  0  0  0  0  0  0  0
  -21.7161   -0.6071   13.1853 O   0  0  0  0  0  0  0  0  0  0  0  0
  -18.9957   -4.6457   11.5741 O   0  0  0  0  0  0  0  0  0  0  0  0
  -22.3226   -7.5626    9.8263 O   0  0  0  0  0  0  0  0  0  0  0  0
  -23.3472   -2.1766   12.1385 C   0  0  0  0  0  0  0  0  0  0  0  0
  -21.3032   -3.9481   11.6076 C   0  0  0  0  0  0  0  0  0  0  0  0
  -22.6399   -4.2357   11.3127 C   0  0  0  0  0  0  0  0  0  0  0  0
  -21.9534   -1.7920   12.5274 C   0  0  0  0  0  0  0  0  0  0  0  0
  -20.9873   -2.6762   12.2477 C   0  0  0  0  0  0  0  0  0  0  0  0
  -20.3104   -4.8834   11.3010 C   0  0  0  0  0  0  0  0  0  0  0  0
  -22.9822   -5.4491   10.7146 C   0  0  0  0  0  0  0  0  0  0  0  0
  -21.9896   -6.3789   10.4098 C   0  0  0  0  0  0  0  0  0  0  0  0
  -20.6554   -6.0961   10.7019 C   0  0  0  0  0  0  0  0  0  0  0  0
  -22.4237   -0.0182   13.3597 H   0  0  0  0  0  0  0  0  0  0  0  0
  -18.7390   -3.8391   11.9760 H   0  0  0  0  0  0  0  0  0  0  0  0
  -23.2189   -7.7525    9.6301 H   0  0  0  0  0  0  0  0  0  0  0  0
  -27.1138   -0.6799   14.8284 O   0  0  0  0  0  0  0  0  0  0  0  0
  -27.4465    1.5294   13.1918 O   0  0  0  0  0  0  0  0  0  0  0  0
  -24.4272   -1.2010   12.4157 C   0  0  0  0  0  0  0  0  0  0  0  0
  -24.5858   -0.0960   11.5870 C   0  0  0  0  0  0  0  0  0  0  0  0
  -25.2722   -1.3992   13.5020 C   0  0  0  0  0  0  0  0  0  0  0  0
  -25.6025    0.8228   11.8478 C   0  0  0  0  0  0  0  0  0  0  0  0
  -26.2887   -0.4804   13.7628 C   0  0  0  0  0  0  0  0  0  0  0  0
  -26.4540    0.6305   12.9357 C   0  0  0  0  0  0  0  0  0  0  0  0
  -26.9956   -1.4289   15.3788 H   0  0  0  0  0  0  0  0  0  0  0  0
  -27.5575    2.2757   12.6362 H   0  0  0  0  0  0  0  0  0  0  0  0
  -25.7530    1.9038   11.0325 O   0  0  0  0  0  0  0  0  0  0  0  0
  -24.8420    2.9856   11.2161 C   0  0  0  0  0  0  0  0  0  0  0  0
  1  5  2  0  0  0
  1  7  1  0  0  0
  2  8  1  0  0  0
 27 22  1  0  0  0
 27 28  1  0  0  0
  3 10  1  0  0  0
 17 23  1  0  0  0
  4 12  1  0  0  0
 18 24  1  0  0  0
  5 19  1  0  0  0
  5  8  1  0  0  0
  6  7  1  0  0  0
  6  9  1  0  0  0
  6 10  2  0  0  0
 19 20  1  0  0  0
 19 21  2  0  0  0
  7 11  2  0  0  0
  8  9  2  0  0  0
 10 13  1  0  0  0
 20 22  2  0  0  0
 21 23  1  0  0  0
 11 12  1  0  0  0
 22 24  1  0  0  0
 23 24  2  0  0  0
 12 13  2  0  0  0
  2 14  1  0  0  0
  3 15  1  0  0  0
 17 25  1  0  0  0
  4 16  1  0  0  0
 18 26  1  0  0  0
M  CHG 1   1   1
M  END
> <PUBCHEM_COMPOUND_CID>
441774

> <PUBCHEM_CONFORMER_RMSD>
0.6

> <PUBCHEM_CONFORMER_DIVERSEORDER>
1
2

> <PUBCHEM_MMFF94_PARTIAL_CHARGES>
33
1 -0.87
10 0.09
11 0.92
12 0.09
13 -0.18
14 0.08
15 -0.15
16 -0.15
17 -0.15
18 0.08
19 0.08
2 -0.53
20 0.08
21 -0.15
22 0.08
23 0.28
24 0.15
25 0.15
26 0.15
27 0.15
28 0.15
29 0.45
3 -0.36
30 0.45
31 0.45
32 0.45
33 0.45
4 -0.53
5 -0.53
6 -0.53
7 -0.53
8 0.85
9 0.03

> <PUBCHEM_EFFECTIVE_ROTOR_COUNT>
2

> <PUBCHEM_PHARMACOPHORE_FEATURES>
9
1 2 donor
1 3 acceptor
1 4 donor
1 5 donor
1 6 donor
1 7 donor
6 1 8 9 11 12 13 rings
6 10 15 16 18 19 22 rings
6 9 11 14 17 20 21 rings

> <PUBCHEM_HEAVY_ATOM_COUNT>
23

> <PUBCHEM_ATOM_DEF_STEREO_COUNT>
0

> <PUBCHEM_ATOM_UDEF_STEREO_COUNT>
0

> <PUBCHEM_BOND_DEF_STEREO_COUNT>
0

> <PUBCHEM_BOND_UDEF_STEREO_COUNT>
0

> <PUBCHEM_ISOTOPIC_ATOM_COUNT>
0

> <PUBCHEM_COMPONENT_COUNT>
1

> <PUBCHEM_CACTVS_TAUTO_COUNT>
524

> <PUBCHEM_CONFORMER_ID>
0006BDAE00000001

> <PUBCHEM_MMFF94_ENERGY>
82.7579

> <PUBCHEM_FEATURE_SELFOVERLAP>
45.708

> <PUBCHEM_SHAPE_FINGERPRINT>
10912923 1 18131632309212088930
12107183 9 17413607051099704995
12236239 1 18130788988362787167
12403259 118 14979661204922435514
12403259 415 17167865261783231314
12422481 6 18057051206949427141
12553582 1 18408888425779565454
12616971 3 18342459218673690098
12633257 1 17346600755060518784
12670546 56 17989203771794166409
13134695 92 18336260232077403220
13140716 1 17975697509188966056
13544653 18 18259704484509341396
13760787 5 18409448094230162694
13782708 43 17023194867965111643
14294032 229 16988298491241307313
14386348 63 17385722517206625483
14739800 52 16843868966718771648
15475509 84 18127984005468266680
15788980 27 18408601448422162911
17349148 13 17988358264759012383
17357779 13 18040703762678552804
17844677 252 18187083936096515452
1813 80 18339091410268107180
18785283 64 17170694438240562356
19489759 90 16128655241421038055
200 152 18410566284285665063
20511986 3 18130777945859568121
20645477 70 18187075157536893806
20739085 24 18263099767947564516
21033648 29 17531514469025887261
21065198 48 18273501182100010977
21065201 7 15430027747522910842
21267235 1 18408605834375335758
2297311 6 15285648681457862187
23175994 123 17821447967372430141
23402539 116 18410569552782287355
23557571 272 15338854087490602249
23559900 14 16081918253404357378
23569914 2 15695428886786424744
2871803 45 17895188875305476146
312423 11 18262245413443155132
3411729 13 16270501153640857936
341906 21 16271934787247433577
345986 75 18270955735804815504
34797466 226 15554172591935036928
46194498 28 17023463178407961631
5104073 3 18343587351646970827
5281201 14 17240201036636978286
573450 72 17561362889662643847
602551 16 16056592218243930734
7064713 232 17561359556879129942
7495541 125 16226053339794507908
77492 1 18059859510361019133
9849439 229 15980917012492831545

> <PUBCHEM_SHAPE_MULTIPOLES>
432.24
12.26
1.96
1.58
0.93
0.5
0.08
-3.06
2.81
2.15
-0.1
-3.12
-0.08
-2.36

> <PUBCHEM_SHAPE_SELFOVERLAP>
958.326

> <PUBCHEM_SHAPE_VOLUME>
229.9

> <PUBCHEM_COORDINATE_TYPE>
2
5
10

> <minimizedAffinity>
-5.84063

> <CNNscore>
0.4662811756

> <CNNaffinity>
4.4342265129

> <CNN_VS>
2.0675964355

> <CNNaffinity_variance>
0.0538825989

$$$$
441774


 28 30  0  0  0  0  0  0  0  0999 V2000
  -20.1731    0.3831   10.7853 O   0  0  0  0  0  0  0  0  0  0  0  0
  -19.8622    3.8326   12.0858 O   0  0  0  0  0  0  0  0  0  0  0  0
  -15.4455    1.3160   11.4026 O   0  0  0  0  0  0  0  0  0  0  0  0
  -16.8618   -2.9529    9.8529 O   0  0  0  0  0  0  0  0  0  0  0  0
  -20.4668    1.5964   11.1619 C   0  0  0  0  0  0  0  0  0  0  0  0
  -17.8016    0.8951   11.1126 C   0  0  0  0  0  0  0  0  0  0  0  0
  -18.8175    0.0058   10.7473 C   0  0  0  0  0  0  0  0  0  0  0  0
  -19.4568    2.6072   11.6089 C   0  0  0  0  0  0  0  0  0  0  0  0
  -18.1722    2.2312   11.5649 C   0  0  0  0  0  0  0  0  0  0  0  0
  -16.4670    0.4831   11.0528 C   0  0  0  0  0  0  0  0  0  0  0  0
  -18.5022   -1.2860   10.3244 C   0  0  0  0  0  0  0  0  0  0  0  0
  -17.1704   -1.6931   10.2655 C   0  0  0  0  0  0  0  0  0  0  0  0
  -16.1541   -0.8095   10.6285 C   0  0  0  0  0  0  0  0  0  0  0  0
  -20.7729    4.0528   12.0976 H   0  0  0  0  0  0  0  0  0  0  0  0
  -15.6299    2.1883   11.6907 H   0  0  0  0  0  0  0  0  0  0  0  0
  -17.5446   -3.5464    9.6090 H   0  0  0  0  0  0  0  0  0  0  0  0
  -24.1855    4.0801    9.2472 O   0  0  0  0  0  0  0  0  0  0  0  0
  -25.8783    3.1328   11.2239 O   0  0  0  0  0  0  0  0  0  0  0  0
  -21.8918    2.0016   11.1783 C   0  0  0  0  0  0  0  0  0  0  0  0
  -22.7324    1.5208   12.1759 C   0  0  0  0  0  0  0  0  0  0  0  0
  -22.3755    2.8587   10.1962 C   0  0  0  0  0  0  0  0  0  0  0  0
  -24.0742    1.9021   12.1916 C   0  0  0  0  0  0  0  0  0  0  0  0
  -23.7172    3.2398   10.2119 C   0  0  0  0  0  0  0  0  0  0  0  0
  -24.5665    2.7616   11.2096 C   0  0  0  0  0  0  0  0  0  0  0  0
  -23.6079    4.3965    8.5807 H   0  0  0  0  0  0  0  0  0  0  0  0
  -26.4488    2.8116   11.8941 H   0  0  0  0  0  0  0  0  0  0  0  0
  -24.8933    1.4277   13.1715 O   0  0  0  0  0  0  0  0  0  0  0  0
  -25.5965    0.2173   12.8984 C   0  0  0  0  0  0  0  0  0  0  0  0
  1  5  2  0  0  0
  1  7  1  0  0  0
  2  8  1  0  0  0
 27 22  1  0  0  0
 27 28  1  0  0  0
  3 10  1  0  0  0
 17 23  1  0  0  0
  4 12  1  0  0  0
 18 24  1  0  0  0
  5 19  1  0  0  0
  5  8  1  0  0  0
  6  7  1  0  0  0
  6  9  1  0  0  0
  6 10  2  0  0  0
 19 20  1  0  0  0
 19 21  2  0  0  0
  7 11  2  0  0  0
  8  9  2  0  0  0
 10 13  1  0  0  0
 20 22  2  0  0  0
 21 23  1  0  0  0
 11 12  1  0  0  0
 22 24  1  0  0  0
 23 24  2  0  0  0
 12 13  2  0  0  0
  2 14  1  0  0  0
  3 15  1  0  0  0
 17 25  1  0  0  0
  4 16  1  0  0  0
 18 26  1  0  0  0
M  CHG 1   1   1
M  END
> <PUBCHEM_COMPOUND_CID>
441774

> <PUBCHEM_CONFORMER_RMSD>
0.6

> <PUBCHEM_CONFORMER_DIVERSEORDER>
1
2

> <PUBCHEM_MMFF94_PARTIAL_CHARGES>
33
1 -0.87
10 0.09
11 0.92
12 0.09
13 -0.18
14 0.08
15 -0.15
16 -0.15
17 -0.15
18 0.08
19 0.08
2 -0.53
20 0.08
21 -0.15
22 0.08
23 0.28
24 0.15
25 0.15
26 0.15
27 0.15
28 0.15
29 0.45
3 -0.36
30 0.45
31 0.45
32 0.45
33 0.45
4 -0.53
5 -0.53
6 -0.53
7 -0.53
8 0.85
9 0.03

> <PUBCHEM_EFFECTIVE_ROTOR_COUNT>
2

> <PUBCHEM_PHARMACOPHORE_FEATURES>
9
1 2 donor
1 3 acceptor
1 4 donor
1 5 donor
1 6 donor
1 7 donor
6 1 8 9 11 12 13 rings
6 10 15 16 18 19 22 rings
6 9 11 14 17 20 21 rings

> <PUBCHEM_HEAVY_ATOM_COUNT>
23

> <PUBCHEM_ATOM_DEF_STEREO_COUNT>
0

> <PUBCHEM_ATOM_UDEF_STEREO_COUNT>
0

> <PUBCHEM_BOND_DEF_STEREO_COUNT>
0

> <PUBCHEM_BOND_UDEF_STEREO_COUNT>
0

> <PUBCHEM_ISOTOPIC_ATOM_COUNT>
0

> <PUBCHEM_COMPONENT_COUNT>
1

> <PUBCHEM_CACTVS_TAUTO_COUNT>
524

> <PUBCHEM_CONFORMER_ID>
0006BDAE00000001

> <PUBCHEM_MMFF94_ENERGY>
82.7579

> <PUBCHEM_FEATURE_SELFOVERLAP>
45.708

> <PUBCHEM_SHAPE_FINGERPRINT>
10912923 1 18131632309212088930
12107183 9 17413607051099704995
12236239 1 18130788988362787167
12403259 118 14979661204922435514
12403259 415 17167865261783231314
12422481 6 18057051206949427141
12553582 1 18408888425779565454
12616971 3 18342459218673690098
12633257 1 17346600755060518784
12670546 56 17989203771794166409
13134695 92 18336260232077403220
13140716 1 17975697509188966056
13544653 18 18259704484509341396
13760787 5 18409448094230162694
13782708 43 17023194867965111643
14294032 229 16988298491241307313
14386348 63 17385722517206625483
14739800 52 16843868966718771648
15475509 84 18127984005468266680
15788980 27 18408601448422162911
17349148 13 17988358264759012383
17357779 13 18040703762678552804
17844677 252 18187083936096515452
1813 80 18339091410268107180
18785283 64 17170694438240562356
19489759 90 16128655241421038055
200 152 18410566284285665063
20511986 3 18130777945859568121
20645477 70 18187075157536893806
20739085 24 18263099767947564516
21033648 29 17531514469025887261
21065198 48 18273501182100010977
21065201 7 15430027747522910842
21267235 1 18408605834375335758
2297311 6 15285648681457862187
23175994 123 17821447967372430141
23402539 116 18410569552782287355
23557571 272 15338854087490602249
23559900 14 16081918253404357378
23569914 2 15695428886786424744
2871803 45 17895188875305476146
312423 11 18262245413443155132
3411729 13 16270501153640857936
341906 21 16271934787247433577
345986 75 18270955735804815504
34797466 226 15554172591935036928
46194498 28 17023463178407961631
5104073 3 18343587351646970827
5281201 14 17240201036636978286
573450 72 17561362889662643847
602551 16 16056592218243930734
7064713 232 17561359556879129942
7495541 125 16226053339794507908
77492 1 18059859510361019133
9849439 229 15980917012492831545

> <PUBCHEM_SHAPE_MULTIPOLES>
432.24
12.26
1.96
1.58
0.93
0.5
0.08
-3.06
2.81
2.15
-0.1
-3.12
-0.08
-2.36

> <PUBCHEM_SHAPE_SELFOVERLAP>
958.326

> <PUBCHEM_SHAPE_VOLUME>
229.9

> <PUBCHEM_COORDINATE_TYPE>
2
5
10

> <minimizedAffinity>
-5.91868

> <CNNscore>
0.4121144116

> <CNNaffinity>
5.0461759567

> <CNN_VS>
2.0796017647

> <CNNaffinity_variance>
0.3168074191

$$$$
441774


 28 30  0  0  0  0  0  0  0  0999 V2000
  -21.0055    1.4786   10.5783 O   0  0  0  0  0  0  0  0  0  0  0  0
  -20.8733   -0.1728   13.8862 O   0  0  0  0  0  0  0  0  0  0  0  0
  -16.3305    0.8066   11.7158 O   0  0  0  0  0  0  0  0  0  0  0  0
  -17.5231    2.7823    7.5558 O   0  0  0  0  0  0  0  0  0  0  0  0
  -21.3626    0.9747   11.7267 C   0  0  0  0  0  0  0  0  0  0  0  0
  -18.6626    1.1194   11.1908 C   0  0  0  0  0  0  0  0  0  0  0  0
  -19.6313    1.5671   10.2866 C   0  0  0  0  0  0  0  0  0  0  0  0
  -20.4055    0.4329   12.7428 C   0  0  0  0  0  0  0  0  0  0  0  0
  -19.1024    0.5267   12.4488 C   0  0  0  0  0  0  0  0  0  0  0  0
  -17.3077    1.2331   10.8657 C   0  0  0  0  0  0  0  0  0  0  0  0
  -19.2489    2.1254    9.0663 C   0  0  0  0  0  0  0  0  0  0  0  0
  -17.8971    2.2377    8.7458 C   0  0  0  0  0  0  0  0  0  0  0  0
  -16.9278    1.7928    9.6447 C   0  0  0  0  0  0  0  0  0  0  0  0
  -21.7948   -0.2152   14.0506 H   0  0  0  0  0  0  0  0  0  0  0  0
  -16.5603    0.4274   12.5413 H   0  0  0  0  0  0  0  0  0  0  0  0
  -18.1744    3.0812    6.9521 H   0  0  0  0  0  0  0  0  0  0  0  0
  -25.4612   -1.5910   12.2575 O   0  0  0  0  0  0  0  0  0  0  0  0
  -26.8505    0.7070   12.9351 O   0  0  0  0  0  0  0  0  0  0  0  0
  -22.8080    0.9041   12.0444 C   0  0  0  0  0  0  0  0  0  0  0  0
  -23.4958    2.0641   12.3823 C   0  0  0  0  0  0  0  0  0  0  0  0
  -23.4634   -0.3214   12.0018 C   0  0  0  0  0  0  0  0  0  0  0  0
  -24.8567    1.9979   12.6815 C   0  0  0  0  0  0  0  0  0  0  0  0
  -24.8241   -0.3876   12.3011 C   0  0  0  0  0  0  0  0  0  0  0  0
  -25.5208    0.7720   12.6409 C   0  0  0  0  0  0  0  0  0  0  0  0
  -24.9854   -2.3650   12.0283 H   0  0  0  0  0  0  0  0  0  0  0  0
  -27.3184    1.4860   13.1633 H   0  0  0  0  0  0  0  0  0  0  0  0
  -25.5255    3.1379   13.0122 O   0  0  0  0  0  0  0  0  0  0  0  0
  -25.7752    4.0703   11.9623 C   0  0  0  0  0  0  0  0  0  0  0  0
  1  5  2  0  0  0
  1  7  1  0  0  0
  2  8  1  0  0  0
 27 22  1  0  0  0
 27 28  1  0  0  0
  3 10  1  0  0  0
 17 23  1  0  0  0
  4 12  1  0  0  0
 18 24  1  0  0  0
  5 19  1  0  0  0
  5  8  1  0  0  0
  6  7  1  0  0  0
  6  9  1  0  0  0
  6 10  2  0  0  0
 19 20  1  0  0  0
 19 21  2  0  0  0
  7 11  2  0  0  0
  8  9  2  0  0  0
 10 13  1  0  0  0
 20 22  2  0  0  0
 21 23  1  0  0  0
 11 12  1  0  0  0
 22 24  1  0  0  0
 23 24  2  0  0  0
 12 13  2  0  0  0
  2 14  1  0  0  0
  3 15  1  0  0  0
 17 25  1  0  0  0
  4 16  1  0  0  0
 18 26  1  0  0  0
M  CHG 1   1   1
M  END
> <PUBCHEM_COMPOUND_CID>
441774

> <PUBCHEM_CONFORMER_RMSD>
0.6

> <PUBCHEM_CONFORMER_DIVERSEORDER>
1
2

> <PUBCHEM_MMFF94_PARTIAL_CHARGES>
33
1 -0.87
10 0.09
11 0.92
12 0.09
13 -0.18
14 0.08
15 -0.15
16 -0.15
17 -0.15
18 0.08
19 0.08
2 -0.53
20 0.08
21 -0.15
22 0.08
23 0.28
24 0.15
25 0.15
26 0.15
27 0.15
28 0.15
29 0.45
3 -0.36
30 0.45
31 0.45
32 0.45
33 0.45
4 -0.53
5 -0.53
6 -0.53
7 -0.53
8 0.85
9 0.03

> <PUBCHEM_EFFECTIVE_ROTOR_COUNT>
2

> <PUBCHEM_PHARMACOPHORE_FEATURES>
9
1 2 donor
1 3 acceptor
1 4 donor
1 5 donor
1 6 donor
1 7 donor
6 1 8 9 11 12 13 rings
6 10 15 16 18 19 22 rings
6 9 11 14 17 20 21 rings

> <PUBCHEM_HEAVY_ATOM_COUNT>
23

> <PUBCHEM_ATOM_DEF_STEREO_COUNT>
0

> <PUBCHEM_ATOM_UDEF_STEREO_COUNT>
0

> <PUBCHEM_BOND_DEF_STEREO_COUNT>
0

> <PUBCHEM_BOND_UDEF_STEREO_COUNT>
0

> <PUBCHEM_ISOTOPIC_ATOM_COUNT>
0

> <PUBCHEM_COMPONENT_COUNT>
1

> <PUBCHEM_CACTVS_TAUTO_COUNT>
524

> <PUBCHEM_CONFORMER_ID>
0006BDAE00000001

> <PUBCHEM_MMFF94_ENERGY>
82.7579

> <PUBCHEM_FEATURE_SELFOVERLAP>
45.708

> <PUBCHEM_SHAPE_FINGERPRINT>
10912923 1 18131632309212088930
12107183 9 17413607051099704995
12236239 1 18130788988362787167
12403259 118 14979661204922435514
12403259 415 17167865261783231314
12422481 6 18057051206949427141
12553582 1 18408888425779565454
12616971 3 18342459218673690098
12633257 1 17346600755060518784
12670546 56 17989203771794166409
13134695 92 18336260232077403220
13140716 1 17975697509188966056
13544653 18 18259704484509341396
13760787 5 18409448094230162694
13782708 43 17023194867965111643
14294032 229 16988298491241307313
14386348 63 17385722517206625483
14739800 52 16843868966718771648
15475509 84 18127984005468266680
15788980 27 18408601448422162911
17349148 13 17988358264759012383
17357779 13 18040703762678552804
17844677 252 18187083936096515452
1813 80 18339091410268107180
18785283 64 17170694438240562356
19489759 90 16128655241421038055
200 152 18410566284285665063
20511986 3 18130777945859568121
20645477 70 18187075157536893806
20739085 24 18263099767947564516
21033648 29 17531514469025887261
21065198 48 18273501182100010977
21065201 7 15430027747522910842
21267235 1 18408605834375335758
2297311 6 15285648681457862187
23175994 123 17821447967372430141
23402539 116 18410569552782287355
23557571 272 15338854087490602249
23559900 14 16081918253404357378
23569914 2 15695428886786424744
2871803 45 17895188875305476146
312423 11 18262245413443155132
3411729 13 16270501153640857936
341906 21 16271934787247433577
345986 75 18270955735804815504
34797466 226 15554172591935036928
46194498 28 17023463178407961631
5104073 3 18343587351646970827
5281201 14 17240201036636978286
573450 72 17561362889662643847
602551 16 16056592218243930734
7064713 232 17561359556879129942
7495541 125 16226053339794507908
77492 1 18059859510361019133
9849439 229 15980917012492831545

> <PUBCHEM_SHAPE_MULTIPOLES>
432.24
12.26
1.96
1.58
0.93
0.5
0.08
-3.06
2.81
2.15
-0.1
-3.12
-0.08
-2.36

> <PUBCHEM_SHAPE_SELFOVERLAP>
958.326

> <PUBCHEM_SHAPE_VOLUME>
229.9

> <PUBCHEM_COORDINATE_TYPE>
2
5
10

> <minimizedAffinity>
-5.68345

> <CNNscore>
0.3556413352

> <CNNaffinity>
4.5022497177

> <CNN_VS>
1.6011861563

> <CNNaffinity_variance>
0.0930604935

$$$$
441774


 28 30  0  0  0  0  0  0  0  0999 V2000
  -20.6466   -2.4810   14.6109 O   0  0  0  0  0  0  0  0  0  0  0  0
  -20.4577   -0.3099   11.6213 O   0  0  0  0  0  0  0  0  0  0  0  0
  -19.0127    1.8669   16.0350 O   0  0  0  0  0  0  0  0  0  0  0  0
  -19.6996   -1.5956   19.2241 O   0  0  0  0  0  0  0  0  0  0  0  0
  -20.6681   -2.0729   13.3727 C   0  0  0  0  0  0  0  0  0  0  0  0
  -19.8270   -0.2748   15.2850 C   0  0  0  0  0  0  0  0  0  0  0  0
  -20.2148   -1.5806   15.6029 C   0  0  0  0  0  0  0  0  0  0  0  0
  -20.3110   -0.6857   12.9367 C   0  0  0  0  0  0  0  0  0  0  0  0
  -19.9013    0.1567   13.8938 C   0  0  0  0  0  0  0  0  0  0  0  0
  -19.3966    0.5854   16.2995 C   0  0  0  0  0  0  0  0  0  0  0  0
  -20.1720   -2.0241   16.9253 C   0  0  0  0  0  0  0  0  0  0  0  0
  -19.7418   -1.1638   17.9340 C   0  0  0  0  0  0  0  0  0  0  0  0
  -19.3539    0.1390   17.6214 C   0  0  0  0  0  0  0  0  0  0  0  0
  -20.7474   -0.9341   10.9853 H   0  0  0  0  0  0  0  0  0  0  0  0
  -19.0326    2.1899   15.1556 H   0  0  0  0  0  0  0  0  0  0  0  0
  -19.9602   -2.4708   19.4340 H   0  0  0  0  0  0  0  0  0  0  0  0
  -24.0660   -3.7848   10.3415 O   0  0  0  0  0  0  0  0  0  0  0  0
  -22.3027   -5.6988    9.3940 O   0  0  0  0  0  0  0  0  0  0  0  0
  -21.0990   -3.0281   12.3252 C   0  0  0  0  0  0  0  0  0  0  0  0
  -20.2059   -3.9855   11.8576 C   0  0  0  0  0  0  0  0  0  0  0  0
  -22.3923   -2.9583   11.8194 C   0  0  0  0  0  0  0  0  0  0  0  0
  -20.6113   -4.8849   10.8713 C   0  0  0  0  0  0  0  0  0  0  0  0
  -22.7975   -3.8576   10.8332 C   0  0  0  0  0  0  0  0  0  0  0  0
  -21.9071   -4.8209   10.3592 C   0  0  0  0  0  0  0  0  0  0  0  0
  -24.6575   -3.1344   10.6657 H   0  0  0  0  0  0  0  0  0  0  0  0
  -21.7046   -6.3459    9.0756 H   0  0  0  0  0  0  0  0  0  0  0  0
  -19.7318   -5.8208   10.4167 O   0  0  0  0  0  0  0  0  0  0  0  0
  -18.4984   -5.9473   11.1215 C   0  0  0  0  0  0  0  0  0  0  0  0
  1  5  2  0  0  0
  1  7  1  0  0  0
  2  8  1  0  0  0
 27 22  1  0  0  0
 27 28  1  0  0  0
  3 10  1  0  0  0
 17 23  1  0  0  0
  4 12  1  0  0  0
 18 24  1  0  0  0
  5 19  1  0  0  0
  5  8  1  0  0  0
  6  7  1  0  0  0
  6  9  1  0  0  0
  6 10  2  0  0  0
 19 20  1  0  0  0
 19 21  2  0  0  0
  7 11  2  0  0  0
  8  9  2  0  0  0
 10 13  1  0  0  0
 20 22  2  0  0  0
 21 23  1  0  0  0
 11 12  1  0  0  0
 22 24  1  0  0  0
 23 24  2  0  0  0
 12 13  2  0  0  0
  2 14  1  0  0  0
  3 15  1  0  0  0
 17 25  1  0  0  0
  4 16  1  0  0  0
 18 26  1  0  0  0
M  CHG 1   1   1
M  END
> <PUBCHEM_COMPOUND_CID>
441774

> <PUBCHEM_CONFORMER_RMSD>
0.6

> <PUBCHEM_CONFORMER_DIVERSEORDER>
1
2

> <PUBCHEM_MMFF94_PARTIAL_CHARGES>
33
1 -0.87
10 0.09
11 0.92
12 0.09
13 -0.18
14 0.08
15 -0.15
16 -0.15
17 -0.15
18 0.08
19 0.08
2 -0.53
20 0.08
21 -0.15
22 0.08
23 0.28
24 0.15
25 0.15
26 0.15
27 0.15
28 0.15
29 0.45
3 -0.36
30 0.45
31 0.45
32 0.45
33 0.45
4 -0.53
5 -0.53
6 -0.53
7 -0.53
8 0.85
9 0.03

> <PUBCHEM_EFFECTIVE_ROTOR_COUNT>
2

> <PUBCHEM_PHARMACOPHORE_FEATURES>
9
1 2 donor
1 3 acceptor
1 4 donor
1 5 donor
1 6 donor
1 7 donor
6 1 8 9 11 12 13 rings
6 10 15 16 18 19 22 rings
6 9 11 14 17 20 21 rings

> <PUBCHEM_HEAVY_ATOM_COUNT>
23

> <PUBCHEM_ATOM_DEF_STEREO_COUNT>
0

> <PUBCHEM_ATOM_UDEF_STEREO_COUNT>
0

> <PUBCHEM_BOND_DEF_STEREO_COUNT>
0

> <PUBCHEM_BOND_UDEF_STEREO_COUNT>
0

> <PUBCHEM_ISOTOPIC_ATOM_COUNT>
0

> <PUBCHEM_COMPONENT_COUNT>
1

> <PUBCHEM_CACTVS_TAUTO_COUNT>
524

> <PUBCHEM_CONFORMER_ID>
0006BDAE00000001

> <PUBCHEM_MMFF94_ENERGY>
82.7579

> <PUBCHEM_FEATURE_SELFOVERLAP>
45.708

> <PUBCHEM_SHAPE_FINGERPRINT>
10912923 1 18131632309212088930
12107183 9 17413607051099704995
12236239 1 18130788988362787167
12403259 118 14979661204922435514
12403259 415 17167865261783231314
12422481 6 18057051206949427141
12553582 1 18408888425779565454
12616971 3 18342459218673690098
12633257 1 17346600755060518784
12670546 56 17989203771794166409
13134695 92 18336260232077403220
13140716 1 17975697509188966056
13544653 18 18259704484509341396
13760787 5 18409448094230162694
13782708 43 17023194867965111643
14294032 229 16988298491241307313
14386348 63 17385722517206625483
14739800 52 16843868966718771648
15475509 84 18127984005468266680
15788980 27 18408601448422162911
17349148 13 17988358264759012383
17357779 13 18040703762678552804
17844677 252 18187083936096515452
1813 80 18339091410268107180
18785283 64 17170694438240562356
19489759 90 16128655241421038055
200 152 18410566284285665063
20511986 3 18130777945859568121
20645477 70 18187075157536893806
20739085 24 18263099767947564516
21033648 29 17531514469025887261
21065198 48 18273501182100010977
21065201 7 15430027747522910842
21267235 1 18408605834375335758
2297311 6 15285648681457862187
23175994 123 17821447967372430141
23402539 116 18410569552782287355
23557571 272 15338854087490602249
23559900 14 16081918253404357378
23569914 2 15695428886786424744
2871803 45 17895188875305476146
312423 11 18262245413443155132
3411729 13 16270501153640857936
341906 21 16271934787247433577
345986 75 18270955735804815504
34797466 226 15554172591935036928
46194498 28 17023463178407961631
5104073 3 18343587351646970827
5281201 14 17240201036636978286
573450 72 17561362889662643847
602551 16 16056592218243930734
7064713 232 17561359556879129942
7495541 125 16226053339794507908
77492 1 18059859510361019133
9849439 229 15980917012492831545

> <PUBCHEM_SHAPE_MULTIPOLES>
432.24
12.26
1.96
1.58
0.93
0.5
0.08
-3.06
2.81
2.15
-0.1
-3.12
-0.08
-2.36

> <PUBCHEM_SHAPE_SELFOVERLAP>
958.326

> <PUBCHEM_SHAPE_VOLUME>
229.9

> <PUBCHEM_COORDINATE_TYPE>
2
5
10

> <minimizedAffinity>
-7.47595

> <CNNscore>
0.3410448432

> <CNNaffinity>
4.7863168716

> <CNN_VS>
1.6323486567

> <CNNaffinity_variance>
0.0872579738

$$$$
441774


 28 30  0  0  0  0  0  0  0  0999 V2000
  -25.2276   -3.8226   10.8286 O   0  0  0  0  0  0  0  0  0  0  0  0
  -22.1106   -2.5622   12.3722 O   0  0  0  0  0  0  0  0  0  0  0  0
  -21.7574   -7.1409   10.0879 O   0  0  0  0  0  0  0  0  0  0  0  0
  -26.1894   -7.9253    8.5472 O   0  0  0  0  0  0  0  0  0  0  0  0
  -24.3637   -3.0433   11.4175 C   0  0  0  0  0  0  0  0  0  0  0  0
  -23.4492   -5.4683   10.4789 C   0  0  0  0  0  0  0  0  0  0  0  0
  -24.7804   -5.0633   10.3367 C   0  0  0  0  0  0  0  0  0  0  0  0
  -22.9294   -3.4024   11.6533 C   0  0  0  0  0  0  0  0  0  0  0  0
  -22.5215   -4.5858   11.1773 C   0  0  0  0  0  0  0  0  0  0  0  0
  -23.0441   -6.7052    9.9686 C   0  0  0  0  0  0  0  0  0  0  0  0
  -25.7004   -5.8880    9.6881 C   0  0  0  0  0  0  0  0  0  0  0  0
  -25.2928   -7.1203    9.1800 C   0  0  0  0  0  0  0  0  0  0  0  0
  -23.9662   -7.5280    9.3194 C   0  0  0  0  0  0  0  0  0  0  0  0
  -22.4395   -1.7428   12.6858 H   0  0  0  0  0  0  0  0  0  0  0  0
  -21.1200   -6.6066   10.5195 H   0  0  0  0  0  0  0  0  0  0  0  0
  -27.0805   -7.6513    8.4536 H   0  0  0  0  0  0  0  0  0  0  0  0
  -26.5890   -0.3335   14.7892 O   0  0  0  0  0  0  0  0  0  0  0  0
  -26.1262    1.9560   13.3013 O   0  0  0  0  0  0  0  0  0  0  0  0
  -24.8285   -1.7269   11.9135 C   0  0  0  0  0  0  0  0  0  0  0  0
  -24.5916   -0.5841   11.1579 C   0  0  0  0  0  0  0  0  0  0  0  0
  -25.4970   -1.6461   13.1300 C   0  0  0  0  0  0  0  0  0  0  0  0
  -25.0290    0.6555   11.6247 C   0  0  0  0  0  0  0  0  0  0  0  0
  -25.9342   -0.4066   13.5968 C   0  0  0  0  0  0  0  0  0  0  0  0
  -25.7003    0.7442   12.8441 C   0  0  0  0  0  0  0  0  0  0  0  0
  -26.7418   -1.1117   15.2883 H   0  0  0  0  0  0  0  0  0  0  0  0
  -25.9691    2.7291   12.7957 H   0  0  0  0  0  0  0  0  0  0  0  0
  -24.7940    1.7720   10.8801 O   0  0  0  0  0  0  0  0  0  0  0  0
  -23.4681    2.2970   10.9005 C   0  0  0  0  0  0  0  0  0  0  0  0
  1  5  2  0  0  0
  1  7  1  0  0  0
  2  8  1  0  0  0
 27 22  1  0  0  0
 27 28  1  0  0  0
  3 10  1  0  0  0
 17 23  1  0  0  0
  4 12  1  0  0  0
 18 24  1  0  0  0
  5 19  1  0  0  0
  5  8  1  0  0  0
  6  7  1  0  0  0
  6  9  1  0  0  0
  6 10  2  0  0  0
 19 20  1  0  0  0
 19 21  2  0  0  0
  7 11  2  0  0  0
  8  9  2  0  0  0
 10 13  1  0  0  0
 20 22  2  0  0  0
 21 23  1  0  0  0
 11 12  1  0  0  0
 22 24  1  0  0  0
 23 24  2  0  0  0
 12 13  2  0  0  0
  2 14  1  0  0  0
  3 15  1  0  0  0
 17 25  1  0  0  0
  4 16  1  0  0  0
 18 26  1  0  0  0
M  CHG 1   1   1
M  END
> <PUBCHEM_COMPOUND_CID>
441774

> <PUBCHEM_CONFORMER_RMSD>
0.6

> <PUBCHEM_CONFORMER_DIVERSEORDER>
1
2

> <PUBCHEM_MMFF94_PARTIAL_CHARGES>
33
1 -0.87
10 0.09
11 0.92
12 0.09
13 -0.18
14 0.08
15 -0.15
16 -0.15
17 -0.15
18 0.08
19 0.08
2 -0.53
20 0.08
21 -0.15
22 0.08
23 0.28
24 0.15
25 0.15
26 0.15
27 0.15
28 0.15
29 0.45
3 -0.36
30 0.45
31 0.45
32 0.45
33 0.45
4 -0.53
5 -0.53
6 -0.53
7 -0.53
8 0.85
9 0.03

> <PUBCHEM_EFFECTIVE_ROTOR_COUNT>
2

> <PUBCHEM_PHARMACOPHORE_FEATURES>
9
1 2 donor
1 3 acceptor
1 4 donor
1 5 donor
1 6 donor
1 7 donor
6 1 8 9 11 12 13 rings
6 10 15 16 18 19 22 rings
6 9 11 14 17 20 21 rings

> <PUBCHEM_HEAVY_ATOM_COUNT>
23

> <PUBCHEM_ATOM_DEF_STEREO_COUNT>
0

> <PUBCHEM_ATOM_UDEF_STEREO_COUNT>
0

> <PUBCHEM_BOND_DEF_STEREO_COUNT>
0

> <PUBCHEM_BOND_UDEF_STEREO_COUNT>
0

> <PUBCHEM_ISOTOPIC_ATOM_COUNT>
0

> <PUBCHEM_COMPONENT_COUNT>
1

> <PUBCHEM_CACTVS_TAUTO_COUNT>
524

> <PUBCHEM_CONFORMER_ID>
0006BDAE00000001

> <PUBCHEM_MMFF94_ENERGY>
82.7579

> <PUBCHEM_FEATURE_SELFOVERLAP>
45.708

> <PUBCHEM_SHAPE_FINGERPRINT>
10912923 1 18131632309212088930
12107183 9 17413607051099704995
12236239 1 18130788988362787167
12403259 118 14979661204922435514
12403259 415 17167865261783231314
12422481 6 18057051206949427141
12553582 1 18408888425779565454
12616971 3 18342459218673690098
12633257 1 17346600755060518784
12670546 56 17989203771794166409
13134695 92 18336260232077403220
13140716 1 17975697509188966056
13544653 18 18259704484509341396
13760787 5 18409448094230162694
13782708 43 17023194867965111643
14294032 229 16988298491241307313
14386348 63 17385722517206625483
14739800 52 16843868966718771648
15475509 84 18127984005468266680
15788980 27 18408601448422162911
17349148 13 17988358264759012383
17357779 13 18040703762678552804
17844677 252 18187083936096515452
1813 80 18339091410268107180
18785283 64 17170694438240562356
19489759 90 16128655241421038055
200 152 18410566284285665063
20511986 3 18130777945859568121
20645477 70 18187075157536893806
20739085 24 18263099767947564516
21033648 29 17531514469025887261
21065198 48 18273501182100010977
21065201 7 15430027747522910842
21267235 1 18408605834375335758
2297311 6 15285648681457862187
23175994 123 17821447967372430141
23402539 116 18410569552782287355
23557571 272 15338854087490602249
23559900 14 16081918253404357378
23569914 2 15695428886786424744
2871803 45 17895188875305476146
312423 11 18262245413443155132
3411729 13 16270501153640857936
341906 21 16271934787247433577
345986 75 18270955735804815504
34797466 226 15554172591935036928
46194498 28 17023463178407961631
5104073 3 18343587351646970827
5281201 14 17240201036636978286
573450 72 17561362889662643847
602551 16 16056592218243930734
7064713 232 17561359556879129942
7495541 125 16226053339794507908
77492 1 18059859510361019133
9849439 229 15980917012492831545

> <PUBCHEM_SHAPE_MULTIPOLES>
432.24
12.26
1.96
1.58
0.93
0.5
0.08
-3.06
2.81
2.15
-0.1
-3.12
-0.08
-2.36

> <PUBCHEM_SHAPE_SELFOVERLAP>
958.326

> <PUBCHEM_SHAPE_VOLUME>
229.9

> <PUBCHEM_COORDINATE_TYPE>
2
5
10

> <minimizedAffinity>
-5.56501

> <CNNscore>
0.3125136197

> <CNNaffinity>
4.3612680435

> <CNN_VS>
1.3629556894

> <CNNaffinity_variance>
0.0887381211

$$$$
441774


 28 30  0  0  0  0  0  0  0  0999 V2000
  -22.2870   -4.1744   12.0828 O   0  0  0  0  0  0  0  0  0  0  0  0
  -18.8353   -4.7530   10.8838 O   0  0  0  0  0  0  0  0  0  0  0  0
  -22.3868   -7.9643    9.0449 O   0  0  0  0  0  0  0  0  0  0  0  0
  -26.3727   -6.5184   11.2020 O   0  0  0  0  0  0  0  0  0  0  0  0
  -21.0106   -4.0249   11.8624 C   0  0  0  0  0  0  0  0  0  0  0  0
  -22.2916   -6.0806   10.5467 C   0  0  0  0  0  0  0  0  0  0  0  0
  -22.9620   -5.2146   11.4166 C   0  0  0  0  0  0  0  0  0  0  0  0
  -20.1973   -4.9222   10.9820 C   0  0  0  0  0  0  0  0  0  0  0  0
  -20.8563   -5.9053   10.3554 C   0  0  0  0  0  0  0  0  0  0  0  0
  -23.0009   -7.0960    9.8984 C   0  0  0  0  0  0  0  0  0  0  0  0
  -24.3321   -5.3614   11.6367 C   0  0  0  0  0  0  0  0  0  0  0  0
  -25.0363   -6.3745   10.9882 C   0  0  0  0  0  0  0  0  0  0  0  0
  -24.3717   -7.2401   10.1196 C   0  0  0  0  0  0  0  0  0  0  0  0
  -18.4164   -4.0501   11.3404 H   0  0  0  0  0  0  0  0  0  0  0  0
  -21.4676   -7.8879    8.8802 H   0  0  0  0  0  0  0  0  0  0  0  0
  -26.8191   -5.9368   11.7856 H   0  0  0  0  0  0  0  0  0  0  0  0
  -17.6619   -0.4966   11.8544 O   0  0  0  0  0  0  0  0  0  0  0  0
  -18.3329    0.1909   14.4520 O   0  0  0  0  0  0  0  0  0  0  0  0
  -20.3049   -2.9150   12.5444 C   0  0  0  0  0  0  0  0  0  0  0  0
  -20.6492   -2.5791   13.8488 C   0  0  0  0  0  0  0  0  0  0  0  0
  -19.3050   -2.2194   11.8739 C   0  0  0  0  0  0  0  0  0  0  0  0
  -19.9850   -1.5340   14.4912 C   0  0  0  0  0  0  0  0  0  0  0  0
  -18.6410   -1.1744   12.5162 C   0  0  0  0  0  0  0  0  0  0  0  0
  -18.9808   -0.8318   13.8248 C   0  0  0  0  0  0  0  0  0  0  0  0
  -17.4400   -0.7335   10.9754 H   0  0  0  0  0  0  0  0  0  0  0  0
  -18.5612    0.4210   15.3311 H   0  0  0  0  0  0  0  0  0  0  0  0
  -20.3267   -1.2091   15.7694 O   0  0  0  0  0  0  0  0  0  0  0  0
  -19.6530   -1.9041   16.8168 C   0  0  0  0  0  0  0  0  0  0  0  0
  1  5  2  0  0  0
  1  7  1  0  0  0
  2  8  1  0  0  0
 27 22  1  0  0  0
 27 28  1  0  0  0
  3 10  1  0  0  0
 17 23  1  0  0  0
  4 12  1  0  0  0
 18 24  1  0  0  0
  5 19  1  0  0  0
  5  8  1  0  0  0
  6  7  1  0  0  0
  6  9  1  0  0  0
  6 10  2  0  0  0
 19 20  1  0  0  0
 19 21  2  0  0  0
  7 11  2  0  0  0
  8  9  2  0  0  0
 10 13  1  0  0  0
 20 22  2  0  0  0
 21 23  1  0  0  0
 11 12  1  0  0  0
 22 24  1  0  0  0
 23 24  2  0  0  0
 12 13  2  0  0  0
  2 14  1  0  0  0
  3 15  1  0  0  0
 17 25  1  0  0  0
  4 16  1  0  0  0
 18 26  1  0  0  0
M  CHG 1   1   1
M  END
> <PUBCHEM_COMPOUND_CID>
441774

> <PUBCHEM_CONFORMER_RMSD>
0.6

> <PUBCHEM_CONFORMER_DIVERSEORDER>
1
2

> <PUBCHEM_MMFF94_PARTIAL_CHARGES>
33
1 -0.87
10 0.09
11 0.92
12 0.09
13 -0.18
14 0.08
15 -0.15
16 -0.15
17 -0.15
18 0.08
19 0.08
2 -0.53
20 0.08
21 -0.15
22 0.08
23 0.28
24 0.15
25 0.15
26 0.15
27 0.15
28 0.15
29 0.45
3 -0.36
30 0.45
31 0.45
32 0.45
33 0.45
4 -0.53
5 -0.53
6 -0.53
7 -0.53
8 0.85
9 0.03

> <PUBCHEM_EFFECTIVE_ROTOR_COUNT>
2

> <PUBCHEM_PHARMACOPHORE_FEATURES>
9
1 2 donor
1 3 acceptor
1 4 donor
1 5 donor
1 6 donor
1 7 donor
6 1 8 9 11 12 13 rings
6 10 15 16 18 19 22 rings
6 9 11 14 17 20 21 rings

> <PUBCHEM_HEAVY_ATOM_COUNT>
23

> <PUBCHEM_ATOM_DEF_STEREO_COUNT>
0

> <PUBCHEM_ATOM_UDEF_STEREO_COUNT>
0

> <PUBCHEM_BOND_DEF_STEREO_COUNT>
0

> <PUBCHEM_BOND_UDEF_STEREO_COUNT>
0

> <PUBCHEM_ISOTOPIC_ATOM_COUNT>
0

> <PUBCHEM_COMPONENT_COUNT>
1

> <PUBCHEM_CACTVS_TAUTO_COUNT>
524

> <PUBCHEM_CONFORMER_ID>
0006BDAE00000001

> <PUBCHEM_MMFF94_ENERGY>
82.7579

> <PUBCHEM_FEATURE_SELFOVERLAP>
45.708

> <PUBCHEM_SHAPE_FINGERPRINT>
10912923 1 18131632309212088930
12107183 9 17413607051099704995
12236239 1 18130788988362787167
12403259 118 14979661204922435514
12403259 415 17167865261783231314
12422481 6 18057051206949427141
12553582 1 18408888425779565454
12616971 3 18342459218673690098
12633257 1 17346600755060518784
12670546 56 17989203771794166409
13134695 92 18336260232077403220
13140716 1 17975697509188966056
13544653 18 18259704484509341396
13760787 5 18409448094230162694
13782708 43 17023194867965111643
14294032 229 16988298491241307313
14386348 63 17385722517206625483
14739800 52 16843868966718771648
15475509 84 18127984005468266680
15788980 27 18408601448422162911
17349148 13 17988358264759012383
17357779 13 18040703762678552804
17844677 252 18187083936096515452
1813 80 18339091410268107180
18785283 64 17170694438240562356
19489759 90 16128655241421038055
200 152 18410566284285665063
20511986 3 18130777945859568121
20645477 70 18187075157536893806
20739085 24 18263099767947564516
21033648 29 17531514469025887261
21065198 48 18273501182100010977
21065201 7 15430027747522910842
21267235 1 18408605834375335758
2297311 6 15285648681457862187
23175994 123 17821447967372430141
23402539 116 18410569552782287355
23557571 272 15338854087490602249
23559900 14 16081918253404357378
23569914 2 15695428886786424744
2871803 45 17895188875305476146
312423 11 18262245413443155132
3411729 13 16270501153640857936
341906 21 16271934787247433577
345986 75 18270955735804815504
34797466 226 15554172591935036928
46194498 28 17023463178407961631
5104073 3 18343587351646970827
5281201 14 17240201036636978286
573450 72 17561362889662643847
602551 16 16056592218243930734
7064713 232 17561359556879129942
7495541 125 16226053339794507908
77492 1 18059859510361019133
9849439 229 15980917012492831545

> <PUBCHEM_SHAPE_MULTIPOLES>
432.24
12.26
1.96
1.58
0.93
0.5
0.08
-3.06
2.81
2.15
-0.1
-3.12
-0.08
-2.36

> <PUBCHEM_SHAPE_SELFOVERLAP>
958.326

> <PUBCHEM_SHAPE_VOLUME>
229.9

> <PUBCHEM_COORDINATE_TYPE>
2
5
10

> <minimizedAffinity>
-7.69087

> <CNNscore>
0.2805424333

> <CNNaffinity>
4.8819994926

> <CNN_VS>
1.3696080446

> <CNNaffinity_variance>
0.2827234864

$$$$
441774


 28 30  0  0  0  0  0  0  0  0999 V2000
  -19.1964    0.8934   13.7992 O   0  0  0  0  0  0  0  0  0  0  0  0
  -19.7210   -1.7698   11.2855 O   0  0  0  0  0  0  0  0  0  0  0  0
  -20.5681   -3.1255   16.1590 O   0  0  0  0  0  0  0  0  0  0  0  0
  -19.5458    0.8411   18.5781 O   0  0  0  0  0  0  0  0  0  0  0  0
  -19.3228    0.2732   12.6593 C   0  0  0  0  0  0  0  0  0  0  0  0
  -19.8891   -1.1544   14.9481 C   0  0  0  0  0  0  0  0  0  0  0  0
  -19.4862    0.1846   14.9803 C   0  0  0  0  0  0  0  0  0  0  0  0
  -19.7086   -1.1670   12.5223 C   0  0  0  0  0  0  0  0  0  0  0  0
  -19.9819   -1.8250   13.6562 C   0  0  0  0  0  0  0  0  0  0  0  0
  -20.1754   -1.8197   16.1439 C   0  0  0  0  0  0  0  0  0  0  0  0
  -19.3710    0.8547   16.1989 C   0  0  0  0  0  0  0  0  0  0  0  0
  -19.6578    0.1883   17.3891 C   0  0  0  0  0  0  0  0  0  0  0  0
  -20.0602   -1.1469   17.3615 C   0  0  0  0  0  0  0  0  0  0  0  0
  -19.5232   -1.2693   10.5184 H   0  0  0  0  0  0  0  0  0  0  0  0
  -20.6528   -3.5986   15.3547 H   0  0  0  0  0  0  0  0  0  0  0  0
  -19.2755    1.7381   18.5965 H   0  0  0  0  0  0  0  0  0  0  0  0
  -20.8582    2.8611    8.8371 O   0  0  0  0  0  0  0  0  0  0  0  0
  -18.2542    3.1338    7.9345 O   0  0  0  0  0  0  0  0  0  0  0  0
  -19.0417    1.0261   11.4146 C   0  0  0  0  0  0  0  0  0  0  0  0
  -17.7307    1.1560   10.9701 C   0  0  0  0  0  0  0  0  0  0  0  0
  -20.0911    1.5961   10.7025 C   0  0  0  0  0  0  0  0  0  0  0  0
  -17.4657    1.8649    9.7983 C   0  0  0  0  0  0  0  0  0  0  0  0
  -19.8260    2.3050    9.5309 C   0  0  0  0  0  0  0  0  0  0  0  0
  -18.5134    2.4393    9.0787 C   0  0  0  0  0  0  0  0  0  0  0  0
  -21.7370    2.7659    9.1482 H   0  0  0  0  0  0  0  0  0  0  0  0
  -17.3724    3.2240    7.6307 H   0  0  0  0  0  0  0  0  0  0  0  0
  -16.1791    1.9890    9.3677 O   0  0  0  0  0  0  0  0  0  0  0  0
  -15.1713    1.3421   10.1422 C   0  0  0  0  0  0  0  0  0  0  0  0
  1  5  2  0  0  0
  1  7  1  0  0  0
  2  8  1  0  0  0
 27 22  1  0  0  0
 27 28  1  0  0  0
  3 10  1  0  0  0
 17 23  1  0  0  0
  4 12  1  0  0  0
 18 24  1  0  0  0
  5 19  1  0  0  0
  5  8  1  0  0  0
  6  7  1  0  0  0
  6  9  1  0  0  0
  6 10  2  0  0  0
 19 20  1  0  0  0
 19 21  2  0  0  0
  7 11  2  0  0  0
  8  9  2  0  0  0
 10 13  1  0  0  0
 20 22  2  0  0  0
 21 23  1  0  0  0
 11 12  1  0  0  0
 22 24  1  0  0  0
 23 24  2  0  0  0
 12 13  2  0  0  0
  2 14  1  0  0  0
  3 15  1  0  0  0
 17 25  1  0  0  0
  4 16  1  0  0  0
 18 26  1  0  0  0
M  CHG 1   1   1
M  END
> <PUBCHEM_COMPOUND_CID>
441774

> <PUBCHEM_CONFORMER_RMSD>
0.6

> <PUBCHEM_CONFORMER_DIVERSEORDER>
1
2

> <PUBCHEM_MMFF94_PARTIAL_CHARGES>
33
1 -0.87
10 0.09
11 0.92
12 0.09
13 -0.18
14 0.08
15 -0.15
16 -0.15
17 -0.15
18 0.08
19 0.08
2 -0.53
20 0.08
21 -0.15
22 0.08
23 0.28
24 0.15
25 0.15
26 0.15
27 0.15
28 0.15
29 0.45
3 -0.36
30 0.45
31 0.45
32 0.45
33 0.45
4 -0.53
5 -0.53
6 -0.53
7 -0.53
8 0.85
9 0.03

> <PUBCHEM_EFFECTIVE_ROTOR_COUNT>
2

> <PUBCHEM_PHARMACOPHORE_FEATURES>
9
1 2 donor
1 3 acceptor
1 4 donor
1 5 donor
1 6 donor
1 7 donor
6 1 8 9 11 12 13 rings
6 10 15 16 18 19 22 rings
6 9 11 14 17 20 21 rings

> <PUBCHEM_HEAVY_ATOM_COUNT>
23

> <PUBCHEM_ATOM_DEF_STEREO_COUNT>
0

> <PUBCHEM_ATOM_UDEF_STEREO_COUNT>
0

> <PUBCHEM_BOND_DEF_STEREO_COUNT>
0

> <PUBCHEM_BOND_UDEF_STEREO_COUNT>
0

> <PUBCHEM_ISOTOPIC_ATOM_COUNT>
0

> <PUBCHEM_COMPONENT_COUNT>
1

> <PUBCHEM_CACTVS_TAUTO_COUNT>
524

> <PUBCHEM_CONFORMER_ID>
0006BDAE00000001

> <PUBCHEM_MMFF94_ENERGY>
82.7579

> <PUBCHEM_FEATURE_SELFOVERLAP>
45.708

> <PUBCHEM_SHAPE_FINGERPRINT>
10912923 1 18131632309212088930
12107183 9 17413607051099704995
12236239 1 18130788988362787167
12403259 118 14979661204922435514
12403259 415 17167865261783231314
12422481 6 18057051206949427141
12553582 1 18408888425779565454
12616971 3 18342459218673690098
12633257 1 17346600755060518784
12670546 56 17989203771794166409
13134695 92 18336260232077403220
13140716 1 17975697509188966056
13544653 18 18259704484509341396
13760787 5 18409448094230162694
13782708 43 17023194867965111643
14294032 229 16988298491241307313
14386348 63 17385722517206625483
14739800 52 16843868966718771648
15475509 84 18127984005468266680
15788980 27 18408601448422162911
17349148 13 17988358264759012383
17357779 13 18040703762678552804
17844677 252 18187083936096515452
1813 80 18339091410268107180
18785283 64 17170694438240562356
19489759 90 16128655241421038055
200 152 18410566284285665063
20511986 3 18130777945859568121
20645477 70 18187075157536893806
20739085 24 18263099767947564516
21033648 29 17531514469025887261
21065198 48 18273501182100010977
21065201 7 15430027747522910842
21267235 1 18408605834375335758
2297311 6 15285648681457862187
23175994 123 17821447967372430141
23402539 116 18410569552782287355
23557571 272 15338854087490602249
23559900 14 16081918253404357378
23569914 2 15695428886786424744
2871803 45 17895188875305476146
312423 11 18262245413443155132
3411729 13 16270501153640857936
341906 21 16271934787247433577
345986 75 18270955735804815504
34797466 226 15554172591935036928
46194498 28 17023463178407961631
5104073 3 18343587351646970827
5281201 14 17240201036636978286
573450 72 17561362889662643847
602551 16 16056592218243930734
7064713 232 17561359556879129942
7495541 125 16226053339794507908
77492 1 18059859510361019133
9849439 229 15980917012492831545

> <PUBCHEM_SHAPE_MULTIPOLES>
432.24
12.26
1.96
1.58
0.93
0.5
0.08
-3.06
2.81
2.15
-0.1
-3.12
-0.08
-2.36

> <PUBCHEM_SHAPE_SELFOVERLAP>
958.326

> <PUBCHEM_SHAPE_VOLUME>
229.9

> <PUBCHEM_COORDINATE_TYPE>
2
5
10

> <minimizedAffinity>
-6.17229

> <CNNscore>
0.2516523898

> <CNNaffinity>
4.8038835526

> <CNN_VS>
1.2089087963

> <CNNaffinity_variance>
0.1718911231

$$$$
441774


 28 30  0  0  0  0  0  0  0  0999 V2000
  -21.2123   -2.9720   11.3528 O   0  0  0  0  0  0  0  0  0  0  0  0
  -18.0375   -4.7641   10.7233 O   0  0  0  0  0  0  0  0  0  0  0  0
  -22.3045   -7.5567   10.1743 O   0  0  0  0  0  0  0  0  0  0  0  0
  -25.7604   -4.4791   11.2770 O   0  0  0  0  0  0  0  0  0  0  0  0
  -19.9455   -3.2216   11.1704 C   0  0  0  0  0  0  0  0  0  0  0  0
  -21.7176   -5.2918   10.7556 C   0  0  0  0  0  0  0  0  0  0  0  0
  -22.1350   -4.0136   11.1408 C   0  0  0  0  0  0  0  0  0  0  0  0
  -19.3968   -4.5639   10.7977 C   0  0  0  0  0  0  0  0  0  0  0  0
  -20.2893   -5.5423   10.5988 C   0  0  0  0  0  0  0  0  0  0  0  0
  -22.6673   -6.2962   10.5472 C   0  0  0  0  0  0  0  0  0  0  0  0
  -23.4922   -3.7406   11.3158 C   0  0  0  0  0  0  0  0  0  0  0  0
  -24.4364   -4.7444   11.1067 C   0  0  0  0  0  0  0  0  0  0  0  0
  -24.0245   -6.0203   10.7221 C   0  0  0  0  0  0  0  0  0  0  0  0
  -17.4500   -4.0491   10.8701 H   0  0  0  0  0  0  0  0  0  0  0  0
  -21.3997   -7.7666   10.0506 H   0  0  0  0  0  0  0  0  0  0  0  0
  -26.0370   -3.6219   11.5353 H   0  0  0  0  0  0  0  0  0  0  0  0
  -16.0651   -0.6787    9.7077 O   0  0  0  0  0  0  0  0  0  0  0  0
  -16.2665    0.9667   11.9263 O   0  0  0  0  0  0  0  0  0  0  0  0
  -18.9761   -2.1190   11.3696 C   0  0  0  0  0  0  0  0  0  0  0  0
  -19.0860   -1.2997   12.4875 C   0  0  0  0  0  0  0  0  0  0  0  0
  -17.9657   -1.9134   10.4369 C   0  0  0  0  0  0  0  0  0  0  0  0
  -18.1735   -0.2614   12.6753 C   0  0  0  0  0  0  0  0  0  0  0  0
  -17.0534   -0.8752   10.6246 C   0  0  0  0  0  0  0  0  0  0  0  0
  -17.1572   -0.0492   11.7438 C   0  0  0  0  0  0  0  0  0  0  0  0
  -16.0029   -1.2383    8.9588 H   0  0  0  0  0  0  0  0  0  0  0  0
  -16.3362    1.5216   12.6781 H   0  0  0  0  0  0  0  0  0  0  0  0
  -18.2862    0.5384   13.7724 O   0  0  0  0  0  0  0  0  0  0  0  0
  -19.0839    0.0518   14.8498 C   0  0  0  0  0  0  0  0  0  0  0  0
  1  5  2  0  0  0
  1  7  1  0  0  0
  2  8  1  0  0  0
 27 22  1  0  0  0
 27 28  1  0  0  0
  3 10  1  0  0  0
 17 23  1  0  0  0
  4 12  1  0  0  0
 18 24  1  0  0  0
  5 19  1  0  0  0
  5  8  1  0  0  0
  6  7  1  0  0  0
  6  9  1  0  0  0
  6 10  2  0  0  0
 19 20  1  0  0  0
 19 21  2  0  0  0
  7 11  2  0  0  0
  8  9  2  0  0  0
 10 13  1  0  0  0
 20 22  2  0  0  0
 21 23  1  0  0  0
 11 12  1  0  0  0
 22 24  1  0  0  0
 23 24  2  0  0  0
 12 13  2  0  0  0
  2 14  1  0  0  0
  3 15  1  0  0  0
 17 25  1  0  0  0
  4 16  1  0  0  0
 18 26  1  0  0  0
M  CHG 1   1   1
M  END
> <PUBCHEM_COMPOUND_CID>
441774

> <PUBCHEM_CONFORMER_RMSD>
0.6

> <PUBCHEM_CONFORMER_DIVERSEORDER>
1
2

> <PUBCHEM_MMFF94_PARTIAL_CHARGES>
33
1 -0.87
10 0.09
11 0.92
12 0.09
13 -0.18
14 0.08
15 -0.15
16 -0.15
17 -0.15
18 0.08
19 0.08
2 -0.53
20 0.08
21 -0.15
22 0.08
23 0.28
24 0.15
25 0.15
26 0.15
27 0.15
28 0.15
29 0.45
3 -0.36
30 0.45
31 0.45
32 0.45
33 0.45
4 -0.53
5 -0.53
6 -0.53
7 -0.53
8 0.85
9 0.03

> <PUBCHEM_EFFECTIVE_ROTOR_COUNT>
2

> <PUBCHEM_PHARMACOPHORE_FEATURES>
9
1 2 donor
1 3 acceptor
1 4 donor
1 5 donor
1 6 donor
1 7 donor
6 1 8 9 11 12 13 rings
6 10 15 16 18 19 22 rings
6 9 11 14 17 20 21 rings

> <PUBCHEM_HEAVY_ATOM_COUNT>
23

> <PUBCHEM_ATOM_DEF_STEREO_COUNT>
0

> <PUBCHEM_ATOM_UDEF_STEREO_COUNT>
0

> <PUBCHEM_BOND_DEF_STEREO_COUNT>
0

> <PUBCHEM_BOND_UDEF_STEREO_COUNT>
0

> <PUBCHEM_ISOTOPIC_ATOM_COUNT>
0

> <PUBCHEM_COMPONENT_COUNT>
1

> <PUBCHEM_CACTVS_TAUTO_COUNT>
524

> <PUBCHEM_CONFORMER_ID>
0006BDAE00000001

> <PUBCHEM_MMFF94_ENERGY>
82.7579

> <PUBCHEM_FEATURE_SELFOVERLAP>
45.708

> <PUBCHEM_SHAPE_FINGERPRINT>
10912923 1 18131632309212088930
12107183 9 17413607051099704995
12236239 1 18130788988362787167
12403259 118 14979661204922435514
12403259 415 17167865261783231314
12422481 6 18057051206949427141
12553582 1 18408888425779565454
12616971 3 18342459218673690098
12633257 1 17346600755060518784
12670546 56 17989203771794166409
13134695 92 18336260232077403220
13140716 1 17975697509188966056
13544653 18 18259704484509341396
13760787 5 18409448094230162694
13782708 43 17023194867965111643
14294032 229 16988298491241307313
14386348 63 17385722517206625483
14739800 52 16843868966718771648
15475509 84 18127984005468266680
15788980 27 18408601448422162911
17349148 13 17988358264759012383
17357779 13 18040703762678552804
17844677 252 18187083936096515452
1813 80 18339091410268107180
18785283 64 17170694438240562356
19489759 90 16128655241421038055
200 152 18410566284285665063
20511986 3 18130777945859568121
20645477 70 18187075157536893806
20739085 24 18263099767947564516
21033648 29 17531514469025887261
21065198 48 18273501182100010977
21065201 7 15430027747522910842
21267235 1 18408605834375335758
2297311 6 15285648681457862187
23175994 123 17821447967372430141
23402539 116 18410569552782287355
23557571 272 15338854087490602249
23559900 14 16081918253404357378
23569914 2 15695428886786424744
2871803 45 17895188875305476146
312423 11 18262245413443155132
3411729 13 16270501153640857936
341906 21 16271934787247433577
345986 75 18270955735804815504
34797466 226 15554172591935036928
46194498 28 17023463178407961631
5104073 3 18343587351646970827
5281201 14 17240201036636978286
573450 72 17561362889662643847
602551 16 16056592218243930734
7064713 232 17561359556879129942
7495541 125 16226053339794507908
77492 1 18059859510361019133
9849439 229 15980917012492831545

> <PUBCHEM_SHAPE_MULTIPOLES>
432.24
12.26
1.96
1.58
0.93
0.5
0.08
-3.06
2.81
2.15
-0.1
-3.12
-0.08
-2.36

> <PUBCHEM_SHAPE_SELFOVERLAP>
958.326

> <PUBCHEM_SHAPE_VOLUME>
229.9

> <PUBCHEM_COORDINATE_TYPE>
2
5
10

> <minimizedAffinity>
-7.96956

> <CNNscore>
0.2325023413

> <CNNaffinity>
4.6228742599

> <CNN_VS>
1.0748291016

> <CNNaffinity_variance>
0.9713559151

$$$$
