445154


 20 21  0  0  0  0  0  0  0  0999 V2000
  -15.4758   -0.4486    9.8394 O   0  0  0  0  0  0  0  0  0  0  0  0
  -18.3988    3.2586    9.1332 O   0  0  0  0  0  0  0  0  0  0  0  0
  -17.9599    1.0820   12.0229 C   0  0  0  0  0  0  0  0  0  0  0  0
  -18.4474    2.0999   11.2198 C   0  0  0  0  0  0  0  0  0  0  0  0
  -16.9686    0.2232   11.5767 C   0  0  0  0  0  0  0  0  0  0  0  0
  -16.4505    0.3869   10.2920 C   0  0  0  0  0  0  0  0  0  0  0  0
  -17.9294    2.2637    9.9350 C   0  0  0  0  0  0  0  0  0  0  0  0
  -16.9309    1.4071    9.4712 C   0  0  0  0  0  0  0  0  0  0  0  0
  -15.1530   -1.1340   10.3908 H   0  0  0  0  0  0  0  0  0  0  0  0
  -19.0694    3.8341    9.4446 H   0  0  0  0  0  0  0  0  0  0  0  0
  -18.5081    0.9084   13.3798 C   0  0  0  0  0  0  0  0  0  0  0  0
  -18.7207   -0.2820   13.9890 C   0  0  0  0  0  0  0  0  0  0  0  0
  -20.7382   -0.9414   19.1766 O   0  0  0  0  0  0  0  0  0  0  0  0
  -19.2437   -0.4534   15.3353 C   0  0  0  0  0  0  0  0  0  0  0  0
  -19.6054   -1.7224   15.7869 C   0  0  0  0  0  0  0  0  0  0  0  0
  -19.3842    0.6519   16.1745 C   0  0  0  0  0  0  0  0  0  0  0  0
  -20.1076   -1.8864   17.0779 C   0  0  0  0  0  0  0  0  0  0  0  0
  -19.8861    0.4879   17.4656 C   0  0  0  0  0  0  0  0  0  0  0  0
  -20.2480   -0.7812   17.9173 C   0  0  0  0  0  0  0  0  0  0  0  0
  -20.9812   -1.7940   19.4798 H   0  0  0  0  0  0  0  0  0  0  0  0
  1  6  1  0  0  0
  2  7  1  0  0  0
 13 19  1  0  0  0
  3 11  1  0  0  0
  3  4  1  0  0  0
  3  5  2  0  0  0
 14 12  1  0  0  0
 14 15  1  0  0  0
 14 16  2  0  0  0
 11 12  2  0  0  0
  4  7  2  0  0  0
  5  6  1  0  0  0
  6  8  2  0  0  0
  7  8  1  0  0  0
 15 17  2  0  0  0
 16 18  1  0  0  0
 17 19  1  0  0  0
 18 19  2  0  0  0
  1  9  1  0  0  0
  2 10  1  0  0  0
 13 20  1  0  0  0
M  END
> <PUBCHEM_COMPOUND_CID>
445154

> <PUBCHEM_CONFORMER_RMSD>
0.6

> <PUBCHEM_CONFORMER_DIVERSEORDER>
2
1

> <PUBCHEM_MMFF94_PARTIAL_CHARGES>
29
1 -0.53
10 0.08
11 0.08
12 -0.15
13 -0.15
14 -0.15
15 -0.15
16 -0.15
17 0.08
18 0.15
19 0.15
2 -0.53
20 0.15
21 0.15
22 0.15
23 0.15
24 0.15
25 0.15
26 0.15
27 0.45
28 0.45
29 0.45
3 -0.53
4 0.03
5 0.03
6 -0.18
7 -0.18
8 -0.15
9 -0.15

> <PUBCHEM_EFFECTIVE_ROTOR_COUNT>
2

> <PUBCHEM_PHARMACOPHORE_FEATURES>
5
1 1 donor
1 2 donor
1 3 donor
6 4 8 9 10 11 14 rings
6 5 12 13 15 16 17 rings

> <PUBCHEM_HEAVY_ATOM_COUNT>
17

> <PUBCHEM_ATOM_DEF_STEREO_COUNT>
0

> <PUBCHEM_ATOM_UDEF_STEREO_COUNT>
0

> <PUBCHEM_BOND_DEF_STEREO_COUNT>
1

> <PUBCHEM_BOND_UDEF_STEREO_COUNT>
0

> <PUBCHEM_ISOTOPIC_ATOM_COUNT>
0

> <PUBCHEM_COMPONENT_COUNT>
1

> <PUBCHEM_CACTVS_TAUTO_COUNT>
20

> <PUBCHEM_CONFORMER_ID>
0006CAE200000002

> <PUBCHEM_MMFF94_ENERGY>
49.607

> <PUBCHEM_FEATURE_SELFOVERLAP>
25.373

> <PUBCHEM_SHAPE_FINGERPRINT>
10014705 185 18113896031716294869
10595046 47 18336547204748856716
10616163 171 18411139168604729455
10912923 1 18187081750179493368
11315181 36 18408040727672988104
12107183 9 17759799252039973274
12236239 1 18409449181189184810
12670546 56 18335415789967024916
13167823 11 18409165519488960790
13288520 33 18341894117163180047
13583140 156 17418363684266412222
13675066 3 17917988373888227614
13760787 5 17095249124728923956
14251718 22 18342739650105047618
14508225 48 18268695264937878261
14528608 73 18261398892510980172
15042514 8 18197498635496392455
15196674 1 18410012152227455220
15788980 27 18335424569011851848
17834072 33 18335421296283708566
17844677 252 18342745143141762304
18186145 218 16805040731158450208
18681886 176 18341610452132742322
19489759 90 18273493468396678499
200 152 18409728490811561187
20279233 1 16343705430420501028
20281475 54 18334286548670597554
20300324 65 18411419544506804761
20612939 158 17531251699174972428
20645477 56 18343023242838589761
20645477 70 18113333094642728002
21033648 29 16199857384941753498
21065198 48 18335136479680159738
21267235 1 18336553788659707179
21426921 1 18413670210707749065
21709351 56 18333446543356635732
22646028 1 18408039628150693958
2297311 6 18060430126488230821
2306618 200 18060146427472796449
23402539 116 18411415107288824917
23402655 69 18334859407387734340
23557571 272 18131357401076973429
23559900 14 18341321301327255049
29717793 49 18412825789666403054
300161 21 18334006181684594920
34797466 226 17559968769623523516
3545911 37 18342178830044039441
4214541 1 18410292501738007581
474 4 17387136575323497100
4990 188 18272660034662488046
5104073 3 18407759244275226768
542803 24 18342177765198079148
559249 180 18410570643915243458
573450 72 18410005520634134347
6327066 14 18045495310569268317
67856867 119 18336545040212544260
7495541 125 17774720977917645392
77779 3 18409731759423929284
9709674 26 18409738356367816490
9971528 1 17822009839695352596

> <PUBCHEM_SHAPE_MULTIPOLES>
332.24
12.88
1.74
0.72
5.99
0.25
0
-0.98
-0.25
-2.21
0.01
0.19
0.01
-1.17

> <PUBCHEM_SHAPE_SELFOVERLAP>
719.006

> <PUBCHEM_SHAPE_VOLUME>
182.8

> <PUBCHEM_COORDINATE_TYPE>
2
5
10

> <minimizedAffinity>
-7.97373

> <CNNscore>
0.8131229281

> <CNNaffinity>
4.8712015152

> <CNN_VS>
3.9608855247

> <CNNaffinity_variance>
0.0843835622

$$$$
445154


 20 21  0  0  0  0  0  0  0  0999 V2000
  -18.4603    3.2383    9.2666 O   0  0  0  0  0  0  0  0  0  0  0  0
  -15.6010   -0.5434    9.8227 O   0  0  0  0  0  0  0  0  0  0  0  0
  -17.9686    1.0158   12.1127 C   0  0  0  0  0  0  0  0  0  0  0  0
  -17.0145    0.1403   11.6209 C   0  0  0  0  0  0  0  0  0  0  0  0
  -18.4609    2.0547   11.3396 C   0  0  0  0  0  0  0  0  0  0  0  0
  -17.9859    2.2226   10.0388 C   0  0  0  0  0  0  0  0  0  0  0  0
  -16.5394    0.3080   10.3201 C   0  0  0  0  0  0  0  0  0  0  0  0
  -17.0252    1.3493    9.5292 C   0  0  0  0  0  0  0  0  0  0  0  0
  -19.1057    3.8250    9.6090 H   0  0  0  0  0  0  0  0  0  0  0  0
  -15.2746   -1.2429   10.3539 H   0  0  0  0  0  0  0  0  0  0  0  0
  -18.4695    0.8390   13.4873 C   0  0  0  0  0  0  0  0  0  0  0  0
  -18.8447   -0.3409   14.0354 C   0  0  0  0  0  0  0  0  0  0  0  0
  -20.6819   -1.0252   19.2863 O   0  0  0  0  0  0  0  0  0  0  0  0
  -19.3210   -0.5189   15.3981 C   0  0  0  0  0  0  0  0  0  0  0  0
  -19.7802   -1.7666   15.8193 C   0  0  0  0  0  0  0  0  0  0  0  0
  -19.3189    0.5590   16.2835 C   0  0  0  0  0  0  0  0  0  0  0  0
  -20.2376   -1.9367   17.1260 C   0  0  0  0  0  0  0  0  0  0  0  0
  -19.7760    0.3888   17.5903 C   0  0  0  0  0  0  0  0  0  0  0  0
  -20.2355   -0.8590   18.0116 C   0  0  0  0  0  0  0  0  0  0  0  0
  -20.9906   -1.8635   19.5691 H   0  0  0  0  0  0  0  0  0  0  0  0
  1  6  1  0  0  0
  2  7  1  0  0  0
 13 19  1  0  0  0
  3 11  1  0  0  0
  3  4  1  0  0  0
  3  5  2  0  0  0
 14 12  1  0  0  0
 14 15  1  0  0  0
 14 16  2  0  0  0
 11 12  2  0  0  0
  4  7  2  0  0  0
  5  6  1  0  0  0
  6  8  2  0  0  0
  7  8  1  0  0  0
 15 17  2  0  0  0
 16 18  1  0  0  0
 17 19  1  0  0  0
 18 19  2  0  0  0
  1  9  1  0  0  0
  2 10  1  0  0  0
 13 20  1  0  0  0
M  END
> <PUBCHEM_COMPOUND_CID>
445154

> <PUBCHEM_CONFORMER_RMSD>
0.6

> <PUBCHEM_CONFORMER_DIVERSEORDER>
2
1

> <PUBCHEM_MMFF94_PARTIAL_CHARGES>
29
1 -0.53
10 0.08
11 0.08
12 -0.15
13 -0.15
14 -0.15
15 -0.15
16 -0.15
17 0.08
18 0.15
19 0.15
2 -0.53
20 0.15
21 0.15
22 0.15
23 0.15
24 0.15
25 0.15
26 0.15
27 0.45
28 0.45
29 0.45
3 -0.53
4 0.03
5 0.03
6 -0.18
7 -0.18
8 -0.15
9 -0.15

> <PUBCHEM_EFFECTIVE_ROTOR_COUNT>
2

> <PUBCHEM_PHARMACOPHORE_FEATURES>
5
1 1 donor
1 2 donor
1 3 donor
6 4 8 9 10 11 14 rings
6 5 12 13 15 16 17 rings

> <PUBCHEM_HEAVY_ATOM_COUNT>
17

> <PUBCHEM_ATOM_DEF_STEREO_COUNT>
0

> <PUBCHEM_ATOM_UDEF_STEREO_COUNT>
0

> <PUBCHEM_BOND_DEF_STEREO_COUNT>
1

> <PUBCHEM_BOND_UDEF_STEREO_COUNT>
0

> <PUBCHEM_ISOTOPIC_ATOM_COUNT>
0

> <PUBCHEM_COMPONENT_COUNT>
1

> <PUBCHEM_CACTVS_TAUTO_COUNT>
20

> <PUBCHEM_CONFORMER_ID>
0006CAE200000002

> <PUBCHEM_MMFF94_ENERGY>
49.607

> <PUBCHEM_FEATURE_SELFOVERLAP>
25.373

> <PUBCHEM_SHAPE_FINGERPRINT>
10014705 185 18113896031716294869
10595046 47 18336547204748856716
10616163 171 18411139168604729455
10912923 1 18187081750179493368
11315181 36 18408040727672988104
12107183 9 17759799252039973274
12236239 1 18409449181189184810
12670546 56 18335415789967024916
13167823 11 18409165519488960790
13288520 33 18341894117163180047
13583140 156 17418363684266412222
13675066 3 17917988373888227614
13760787 5 17095249124728923956
14251718 22 18342739650105047618
14508225 48 18268695264937878261
14528608 73 18261398892510980172
15042514 8 18197498635496392455
15196674 1 18410012152227455220
15788980 27 18335424569011851848
17834072 33 18335421296283708566
17844677 252 18342745143141762304
18186145 218 16805040731158450208
18681886 176 18341610452132742322
19489759 90 18273493468396678499
200 152 18409728490811561187
20279233 1 16343705430420501028
20281475 54 18334286548670597554
20300324 65 18411419544506804761
20612939 158 17531251699174972428
20645477 56 18343023242838589761
20645477 70 18113333094642728002
21033648 29 16199857384941753498
21065198 48 18335136479680159738
21267235 1 18336553788659707179
21426921 1 18413670210707749065
21709351 56 18333446543356635732
22646028 1 18408039628150693958
2297311 6 18060430126488230821
2306618 200 18060146427472796449
23402539 116 18411415107288824917
23402655 69 18334859407387734340
23557571 272 18131357401076973429
23559900 14 18341321301327255049
29717793 49 18412825789666403054
300161 21 18334006181684594920
34797466 226 17559968769623523516
3545911 37 18342178830044039441
4214541 1 18410292501738007581
474 4 17387136575323497100
4990 188 18272660034662488046
5104073 3 18407759244275226768
542803 24 18342177765198079148
559249 180 18410570643915243458
573450 72 18410005520634134347
6327066 14 18045495310569268317
67856867 119 18336545040212544260
7495541 125 17774720977917645392
77779 3 18409731759423929284
9709674 26 18409738356367816490
9971528 1 17822009839695352596

> <PUBCHEM_SHAPE_MULTIPOLES>
332.24
12.88
1.74
0.72
5.99
0.25
0
-0.98
-0.25
-2.21
0.01
0.19
0.01
-1.17

> <PUBCHEM_SHAPE_SELFOVERLAP>
719.006

> <PUBCHEM_SHAPE_VOLUME>
182.8

> <PUBCHEM_COORDINATE_TYPE>
2
5
10

> <minimizedAffinity>
-7.96022

> <CNNscore>
0.7976438403

> <CNNaffinity>
4.8808507919

> <CNN_VS>
3.8931806087

> <CNNaffinity_variance>
0.0825701952

$$$$
445154


 20 21  0  0  0  0  0  0  0  0999 V2000
  -16.5310   -0.0719   10.4596 O   0  0  0  0  0  0  0  0  0  0  0  0
  -19.2127    3.7884   11.2918 O   0  0  0  0  0  0  0  0  0  0  0  0
  -18.9277    0.6432   13.1103 C   0  0  0  0  0  0  0  0  0  0  0  0
  -19.3459    1.9194   12.7709 C   0  0  0  0  0  0  0  0  0  0  0  0
  -17.9893   -0.0346   12.3491 C   0  0  0  0  0  0  0  0  0  0  0  0
  -17.4544    0.5809   11.2174 C   0  0  0  0  0  0  0  0  0  0  0  0
  -18.8111    2.5350   11.6392 C   0  0  0  0  0  0  0  0  0  0  0  0
  -17.8653    1.8656   10.8625 C   0  0  0  0  0  0  0  0  0  0  0  0
  -16.2550   -0.9350   10.6980 H   0  0  0  0  0  0  0  0  0  0  0  0
  -19.8480    4.2382   11.8134 H   0  0  0  0  0  0  0  0  0  0  0  0
  -19.4937   -0.0075   14.3053 C   0  0  0  0  0  0  0  0  0  0  0  0
  -18.8911   -0.0752   15.5160 C   0  0  0  0  0  0  0  0  0  0  0  0
  -21.0755   -2.4858   20.0804 O   0  0  0  0  0  0  0  0  0  0  0  0
  -19.4575   -0.7005   16.7008 C   0  0  0  0  0  0  0  0  0  0  0  0
  -18.7237   -1.6554   17.4041 C   0  0  0  0  0  0  0  0  0  0  0  0
  -20.7353   -0.3452   17.1331 C   0  0  0  0  0  0  0  0  0  0  0  0
  -19.2674   -2.2554   18.5399 C   0  0  0  0  0  0  0  0  0  0  0  0
  -21.2789   -0.9450   18.2691 C   0  0  0  0  0  0  0  0  0  0  0  0
  -20.5451   -1.9002   18.9724 C   0  0  0  0  0  0  0  0  0  0  0  0
  -20.5823   -3.1274   20.5527 H   0  0  0  0  0  0  0  0  0  0  0  0
  1  6  1  0  0  0
  2  7  1  0  0  0
 13 19  1  0  0  0
  3 11  1  0  0  0
  3  4  1  0  0  0
  3  5  2  0  0  0
 14 12  1  0  0  0
 14 15  1  0  0  0
 14 16  2  0  0  0
 11 12  2  0  0  0
  4  7  2  0  0  0
  5  6  1  0  0  0
  6  8  2  0  0  0
  7  8  1  0  0  0
 15 17  2  0  0  0
 16 18  1  0  0  0
 17 19  1  0  0  0
 18 19  2  0  0  0
  1  9  1  0  0  0
  2 10  1  0  0  0
 13 20  1  0  0  0
M  END
> <PUBCHEM_COMPOUND_CID>
445154

> <PUBCHEM_CONFORMER_RMSD>
0.6

> <PUBCHEM_CONFORMER_DIVERSEORDER>
2
1

> <PUBCHEM_MMFF94_PARTIAL_CHARGES>
29
1 -0.53
10 0.08
11 0.08
12 -0.15
13 -0.15
14 -0.15
15 -0.15
16 -0.15
17 0.08
18 0.15
19 0.15
2 -0.53
20 0.15
21 0.15
22 0.15
23 0.15
24 0.15
25 0.15
26 0.15
27 0.45
28 0.45
29 0.45
3 -0.53
4 0.03
5 0.03
6 -0.18
7 -0.18
8 -0.15
9 -0.15

> <PUBCHEM_EFFECTIVE_ROTOR_COUNT>
2

> <PUBCHEM_PHARMACOPHORE_FEATURES>
5
1 1 donor
1 2 donor
1 3 donor
6 4 8 9 10 11 14 rings
6 5 12 13 15 16 17 rings

> <PUBCHEM_HEAVY_ATOM_COUNT>
17

> <PUBCHEM_ATOM_DEF_STEREO_COUNT>
0

> <PUBCHEM_ATOM_UDEF_STEREO_COUNT>
0

> <PUBCHEM_BOND_DEF_STEREO_COUNT>
1

> <PUBCHEM_BOND_UDEF_STEREO_COUNT>
0

> <PUBCHEM_ISOTOPIC_ATOM_COUNT>
0

> <PUBCHEM_COMPONENT_COUNT>
1

> <PUBCHEM_CACTVS_TAUTO_COUNT>
20

> <PUBCHEM_CONFORMER_ID>
0006CAE200000002

> <PUBCHEM_MMFF94_ENERGY>
49.607

> <PUBCHEM_FEATURE_SELFOVERLAP>
25.373

> <PUBCHEM_SHAPE_FINGERPRINT>
10014705 185 18113896031716294869
10595046 47 18336547204748856716
10616163 171 18411139168604729455
10912923 1 18187081750179493368
11315181 36 18408040727672988104
12107183 9 17759799252039973274
12236239 1 18409449181189184810
12670546 56 18335415789967024916
13167823 11 18409165519488960790
13288520 33 18341894117163180047
13583140 156 17418363684266412222
13675066 3 17917988373888227614
13760787 5 17095249124728923956
14251718 22 18342739650105047618
14508225 48 18268695264937878261
14528608 73 18261398892510980172
15042514 8 18197498635496392455
15196674 1 18410012152227455220
15788980 27 18335424569011851848
17834072 33 18335421296283708566
17844677 252 18342745143141762304
18186145 218 16805040731158450208
18681886 176 18341610452132742322
19489759 90 18273493468396678499
200 152 18409728490811561187
20279233 1 16343705430420501028
20281475 54 18334286548670597554
20300324 65 18411419544506804761
20612939 158 17531251699174972428
20645477 56 18343023242838589761
20645477 70 18113333094642728002
21033648 29 16199857384941753498
21065198 48 18335136479680159738
21267235 1 18336553788659707179
21426921 1 18413670210707749065
21709351 56 18333446543356635732
22646028 1 18408039628150693958
2297311 6 18060430126488230821
2306618 200 18060146427472796449
23402539 116 18411415107288824917
23402655 69 18334859407387734340
23557571 272 18131357401076973429
23559900 14 18341321301327255049
29717793 49 18412825789666403054
300161 21 18334006181684594920
34797466 226 17559968769623523516
3545911 37 18342178830044039441
4214541 1 18410292501738007581
474 4 17387136575323497100
4990 188 18272660034662488046
5104073 3 18407759244275226768
542803 24 18342177765198079148
559249 180 18410570643915243458
573450 72 18410005520634134347
6327066 14 18045495310569268317
67856867 119 18336545040212544260
7495541 125 17774720977917645392
77779 3 18409731759423929284
9709674 26 18409738356367816490
9971528 1 17822009839695352596

> <PUBCHEM_SHAPE_MULTIPOLES>
332.24
12.88
1.74
0.72
5.99
0.25
0
-0.98
-0.25
-2.21
0.01
0.19
0.01
-1.17

> <PUBCHEM_SHAPE_SELFOVERLAP>
719.006

> <PUBCHEM_SHAPE_VOLUME>
182.8

> <PUBCHEM_COORDINATE_TYPE>
2
5
10

> <minimizedAffinity>
-6.68646

> <CNNscore>
0.6450804472

> <CNNaffinity>
4.6260123253

> <CNN_VS>
2.9841501713

> <CNNaffinity_variance>
0.0755210668

$$$$
445154


 20 21  0  0  0  0  0  0  0  0999 V2000
  -17.5608   -2.5579   18.5882 O   0  0  0  0  0  0  0  0  0  0  0  0
  -21.9094   -0.5913   18.5000 O   0  0  0  0  0  0  0  0  0  0  0  0
  -19.1313   -0.3464   16.1543 C   0  0  0  0  0  0  0  0  0  0  0  0
  -20.3805   -0.1515   16.7202 C   0  0  0  0  0  0  0  0  0  0  0  0
  -18.1794   -1.1462   16.7654 C   0  0  0  0  0  0  0  0  0  0  0  0
  -18.4853   -1.7685   17.9758 C   0  0  0  0  0  0  0  0  0  0  0  0
  -20.6865   -0.7737   17.9306 C   0  0  0  0  0  0  0  0  0  0  0  0
  -19.7388   -1.5822   18.5583 C   0  0  0  0  0  0  0  0  0  0  0  0
  -16.7187   -2.6831   18.1970 H   0  0  0  0  0  0  0  0  0  0  0  0
  -22.5461   -0.0483   18.0785 H   0  0  0  0  0  0  0  0  0  0  0  0
  -18.8077    0.3120   14.8761 C   0  0  0  0  0  0  0  0  0  0  0  0
  -18.3656   -0.3197   13.7631 C   0  0  0  0  0  0  0  0  0  0  0  0
  -17.2053    2.1743    8.8795 O   0  0  0  0  0  0  0  0  0  0  0  0
  -18.0645    0.3269   12.4956 C   0  0  0  0  0  0  0  0  0  0  0  0
  -16.7870    0.2232   11.9456 C   0  0  0  0  0  0  0  0  0  0  0  0
  -19.0536    1.0515   11.8304 C   0  0  0  0  0  0  0  0  0  0  0  0
  -16.4983    0.8441   10.7303 C   0  0  0  0  0  0  0  0  0  0  0  0
  -18.7649    1.6721   10.6149 C   0  0  0  0  0  0  0  0  0  0  0  0
  -17.4873    1.5685   10.0650 C   0  0  0  0  0  0  0  0  0  0  0  0
  -16.3470    2.1046    8.5102 H   0  0  0  0  0  0  0  0  0  0  0  0
  1  6  1  0  0  0
  2  7  1  0  0  0
 13 19  1  0  0  0
  3 11  1  0  0  0
  3  4  1  0  0  0
  3  5  2  0  0  0
 14 12  1  0  0  0
 14 15  1  0  0  0
 14 16  2  0  0  0
 11 12  2  0  0  0
  4  7  2  0  0  0
  5  6  1  0  0  0
  6  8  2  0  0  0
  7  8  1  0  0  0
 15 17  2  0  0  0
 16 18  1  0  0  0
 17 19  1  0  0  0
 18 19  2  0  0  0
  1  9  1  0  0  0
  2 10  1  0  0  0
 13 20  1  0  0  0
M  END
> <PUBCHEM_COMPOUND_CID>
445154

> <PUBCHEM_CONFORMER_RMSD>
0.6

> <PUBCHEM_CONFORMER_DIVERSEORDER>
2
1

> <PUBCHEM_MMFF94_PARTIAL_CHARGES>
29
1 -0.53
10 0.08
11 0.08
12 -0.15
13 -0.15
14 -0.15
15 -0.15
16 -0.15
17 0.08
18 0.15
19 0.15
2 -0.53
20 0.15
21 0.15
22 0.15
23 0.15
24 0.15
25 0.15
26 0.15
27 0.45
28 0.45
29 0.45
3 -0.53
4 0.03
5 0.03
6 -0.18
7 -0.18
8 -0.15
9 -0.15

> <PUBCHEM_EFFECTIVE_ROTOR_COUNT>
2

> <PUBCHEM_PHARMACOPHORE_FEATURES>
5
1 1 donor
1 2 donor
1 3 donor
6 4 8 9 10 11 14 rings
6 5 12 13 15 16 17 rings

> <PUBCHEM_HEAVY_ATOM_COUNT>
17

> <PUBCHEM_ATOM_DEF_STEREO_COUNT>
0

> <PUBCHEM_ATOM_UDEF_STEREO_COUNT>
0

> <PUBCHEM_BOND_DEF_STEREO_COUNT>
1

> <PUBCHEM_BOND_UDEF_STEREO_COUNT>
0

> <PUBCHEM_ISOTOPIC_ATOM_COUNT>
0

> <PUBCHEM_COMPONENT_COUNT>
1

> <PUBCHEM_CACTVS_TAUTO_COUNT>
20

> <PUBCHEM_CONFORMER_ID>
0006CAE200000002

> <PUBCHEM_MMFF94_ENERGY>
49.607

> <PUBCHEM_FEATURE_SELFOVERLAP>
25.373

> <PUBCHEM_SHAPE_FINGERPRINT>
10014705 185 18113896031716294869
10595046 47 18336547204748856716
10616163 171 18411139168604729455
10912923 1 18187081750179493368
11315181 36 18408040727672988104
12107183 9 17759799252039973274
12236239 1 18409449181189184810
12670546 56 18335415789967024916
13167823 11 18409165519488960790
13288520 33 18341894117163180047
13583140 156 17418363684266412222
13675066 3 17917988373888227614
13760787 5 17095249124728923956
14251718 22 18342739650105047618
14508225 48 18268695264937878261
14528608 73 18261398892510980172
15042514 8 18197498635496392455
15196674 1 18410012152227455220
15788980 27 18335424569011851848
17834072 33 18335421296283708566
17844677 252 18342745143141762304
18186145 218 16805040731158450208
18681886 176 18341610452132742322
19489759 90 18273493468396678499
200 152 18409728490811561187
20279233 1 16343705430420501028
20281475 54 18334286548670597554
20300324 65 18411419544506804761
20612939 158 17531251699174972428
20645477 56 18343023242838589761
20645477 70 18113333094642728002
21033648 29 16199857384941753498
21065198 48 18335136479680159738
21267235 1 18336553788659707179
21426921 1 18413670210707749065
21709351 56 18333446543356635732
22646028 1 18408039628150693958
2297311 6 18060430126488230821
2306618 200 18060146427472796449
23402539 116 18411415107288824917
23402655 69 18334859407387734340
23557571 272 18131357401076973429
23559900 14 18341321301327255049
29717793 49 18412825789666403054
300161 21 18334006181684594920
34797466 226 17559968769623523516
3545911 37 18342178830044039441
4214541 1 18410292501738007581
474 4 17387136575323497100
4990 188 18272660034662488046
5104073 3 18407759244275226768
542803 24 18342177765198079148
559249 180 18410570643915243458
573450 72 18410005520634134347
6327066 14 18045495310569268317
67856867 119 18336545040212544260
7495541 125 17774720977917645392
77779 3 18409731759423929284
9709674 26 18409738356367816490
9971528 1 17822009839695352596

> <PUBCHEM_SHAPE_MULTIPOLES>
332.24
12.88
1.74
0.72
5.99
0.25
0
-0.98
-0.25
-2.21
0.01
0.19
0.01
-1.17

> <PUBCHEM_SHAPE_SELFOVERLAP>
719.006

> <PUBCHEM_SHAPE_VOLUME>
182.8

> <PUBCHEM_COORDINATE_TYPE>
2
5
10

> <minimizedAffinity>
-7.07714

> <CNNscore>
0.6401709914

> <CNNaffinity>
4.6759419441

> <CNN_VS>
2.9934024811

> <CNNaffinity_variance>
0.1399157494

$$$$
445154


 20 21  0  0  0  0  0  0  0  0999 V2000
  -18.4452   -5.3210   11.1353 O   0  0  0  0  0  0  0  0  0  0  0  0
  -22.5089   -7.5017    9.9038 O   0  0  0  0  0  0  0  0  0  0  0  0
  -21.9156   -4.2517   11.4420 C   0  0  0  0  0  0  0  0  0  0  0  0
  -22.5896   -5.3351   10.9029 C   0  0  0  0  0  0  0  0  0  0  0  0
  -20.5330   -4.2319   11.5268 C   0  0  0  0  0  0  0  0  0  0  0  0
  -19.8043   -5.3257   11.0594 C   0  0  0  0  0  0  0  0  0  0  0  0
  -21.8611   -6.4290   10.4354 C   0  0  0  0  0  0  0  0  0  0  0  0
  -20.4684   -6.4242   10.5137 C   0  0  0  0  0  0  0  0  0  0  0  0
  -17.9990   -4.5831   11.5019 H   0  0  0  0  0  0  0  0  0  0  0  0
  -23.4444   -7.5051    9.8511 H   0  0  0  0  0  0  0  0  0  0  0  0
  -22.6855   -3.0966   11.9368 C   0  0  0  0  0  0  0  0  0  0  0  0
  -24.0238   -2.9373   11.8064 C   0  0  0  0  0  0  0  0  0  0  0  0
  -26.9637    1.4190   13.7545 O   0  0  0  0  0  0  0  0  0  0  0  0
  -24.7869   -1.8067   12.3113 C   0  0  0  0  0  0  0  0  0  0  0  0
  -24.4389   -0.5083   11.9397 C   0  0  0  0  0  0  0  0  0  0  0  0
  -25.8666   -2.0214   13.1681 C   0  0  0  0  0  0  0  0  0  0  0  0
  -25.1705    0.5758   12.4247 C   0  0  0  0  0  0  0  0  0  0  0  0
  -26.5983   -0.9373   13.6528 C   0  0  0  0  0  0  0  0  0  0  0  0
  -26.2502    0.3613   13.2813 C   0  0  0  0  0  0  0  0  0  0  0  0
  -26.7297    2.2913   13.5048 H   0  0  0  0  0  0  0  0  0  0  0  0
  1  6  1  0  0  0
  2  7  1  0  0  0
 13 19  1  0  0  0
  3 11  1  0  0  0
  3  4  1  0  0  0
  3  5  2  0  0  0
 14 12  1  0  0  0
 14 15  1  0  0  0
 14 16  2  0  0  0
 11 12  2  0  0  0
  4  7  2  0  0  0
  5  6  1  0  0  0
  6  8  2  0  0  0
  7  8  1  0  0  0
 15 17  2  0  0  0
 16 18  1  0  0  0
 17 19  1  0  0  0
 18 19  2  0  0  0
  1  9  1  0  0  0
  2 10  1  0  0  0
 13 20  1  0  0  0
M  END
> <PUBCHEM_COMPOUND_CID>
445154

> <PUBCHEM_CONFORMER_RMSD>
0.6

> <PUBCHEM_CONFORMER_DIVERSEORDER>
2
1

> <PUBCHEM_MMFF94_PARTIAL_CHARGES>
29
1 -0.53
10 0.08
11 0.08
12 -0.15
13 -0.15
14 -0.15
15 -0.15
16 -0.15
17 0.08
18 0.15
19 0.15
2 -0.53
20 0.15
21 0.15
22 0.15
23 0.15
24 0.15
25 0.15
26 0.15
27 0.45
28 0.45
29 0.45
3 -0.53
4 0.03
5 0.03
6 -0.18
7 -0.18
8 -0.15
9 -0.15

> <PUBCHEM_EFFECTIVE_ROTOR_COUNT>
2

> <PUBCHEM_PHARMACOPHORE_FEATURES>
5
1 1 donor
1 2 donor
1 3 donor
6 4 8 9 10 11 14 rings
6 5 12 13 15 16 17 rings

> <PUBCHEM_HEAVY_ATOM_COUNT>
17

> <PUBCHEM_ATOM_DEF_STEREO_COUNT>
0

> <PUBCHEM_ATOM_UDEF_STEREO_COUNT>
0

> <PUBCHEM_BOND_DEF_STEREO_COUNT>
1

> <PUBCHEM_BOND_UDEF_STEREO_COUNT>
0

> <PUBCHEM_ISOTOPIC_ATOM_COUNT>
0

> <PUBCHEM_COMPONENT_COUNT>
1

> <PUBCHEM_CACTVS_TAUTO_COUNT>
20

> <PUBCHEM_CONFORMER_ID>
0006CAE200000002

> <PUBCHEM_MMFF94_ENERGY>
49.607

> <PUBCHEM_FEATURE_SELFOVERLAP>
25.373

> <PUBCHEM_SHAPE_FINGERPRINT>
10014705 185 18113896031716294869
10595046 47 18336547204748856716
10616163 171 18411139168604729455
10912923 1 18187081750179493368
11315181 36 18408040727672988104
12107183 9 17759799252039973274
12236239 1 18409449181189184810
12670546 56 18335415789967024916
13167823 11 18409165519488960790
13288520 33 18341894117163180047
13583140 156 17418363684266412222
13675066 3 17917988373888227614
13760787 5 17095249124728923956
14251718 22 18342739650105047618
14508225 48 18268695264937878261
14528608 73 18261398892510980172
15042514 8 18197498635496392455
15196674 1 18410012152227455220
15788980 27 18335424569011851848
17834072 33 18335421296283708566
17844677 252 18342745143141762304
18186145 218 16805040731158450208
18681886 176 18341610452132742322
19489759 90 18273493468396678499
200 152 18409728490811561187
20279233 1 16343705430420501028
20281475 54 18334286548670597554
20300324 65 18411419544506804761
20612939 158 17531251699174972428
20645477 56 18343023242838589761
20645477 70 18113333094642728002
21033648 29 16199857384941753498
21065198 48 18335136479680159738
21267235 1 18336553788659707179
21426921 1 18413670210707749065
21709351 56 18333446543356635732
22646028 1 18408039628150693958
2297311 6 18060430126488230821
2306618 200 18060146427472796449
23402539 116 18411415107288824917
23402655 69 18334859407387734340
23557571 272 18131357401076973429
23559900 14 18341321301327255049
29717793 49 18412825789666403054
300161 21 18334006181684594920
34797466 226 17559968769623523516
3545911 37 18342178830044039441
4214541 1 18410292501738007581
474 4 17387136575323497100
4990 188 18272660034662488046
5104073 3 18407759244275226768
542803 24 18342177765198079148
559249 180 18410570643915243458
573450 72 18410005520634134347
6327066 14 18045495310569268317
67856867 119 18336545040212544260
7495541 125 17774720977917645392
77779 3 18409731759423929284
9709674 26 18409738356367816490
9971528 1 17822009839695352596

> <PUBCHEM_SHAPE_MULTIPOLES>
332.24
12.88
1.74
0.72
5.99
0.25
0
-0.98
-0.25
-2.21
0.01
0.19
0.01
-1.17

> <PUBCHEM_SHAPE_SELFOVERLAP>
719.006

> <PUBCHEM_SHAPE_VOLUME>
182.8

> <PUBCHEM_COORDINATE_TYPE>
2
5
10

> <minimizedAffinity>
-4.74816

> <CNNscore>
0.5688031912

> <CNNaffinity>
4.0287718773

> <CNN_VS>
2.2915782928

> <CNNaffinity_variance>
0.0258858614

$$$$
445154


 20 21  0  0  0  0  0  0  0  0999 V2000
  -21.1057   -4.8911   11.0577 O   0  0  0  0  0  0  0  0  0  0  0  0
  -25.3358   -7.0838   11.3475 O   0  0  0  0  0  0  0  0  0  0  0  0
  -24.4506   -3.5596   11.6235 C   0  0  0  0  0  0  0  0  0  0  0  0
  -25.2182   -4.7122   11.5927 C   0  0  0  0  0  0  0  0  0  0  0  0
  -23.0772   -3.6027   11.4469 C   0  0  0  0  0  0  0  0  0  0  0  0
  -22.4543   -4.8324   11.2335 C   0  0  0  0  0  0  0  0  0  0  0  0
  -24.5954   -5.9421   11.3793 C   0  0  0  0  0  0  0  0  0  0  0  0
  -23.2135   -6.0020   11.1998 C   0  0  0  0  0  0  0  0  0  0  0  0
  -20.5957   -4.1054   11.0803 H   0  0  0  0  0  0  0  0  0  0  0  0
  -26.2641   -7.0438   11.4681 H   0  0  0  0  0  0  0  0  0  0  0  0
  -25.1086   -2.2605   11.8500 C   0  0  0  0  0  0  0  0  0  0  0  0
  -24.5089   -1.1616   12.3659 C   0  0  0  0  0  0  0  0  0  0  0  0
  -26.9899    3.8009   13.1620 O   0  0  0  0  0  0  0  0  0  0  0  0
  -25.1527    0.1262   12.5719 C   0  0  0  0  0  0  0  0  0  0  0  0
  -24.4626    1.3046   12.2882 C   0  0  0  0  0  0  0  0  0  0  0  0
  -26.4605    0.1826   13.0539 C   0  0  0  0  0  0  0  0  0  0  0  0
  -25.0801    2.5395   12.4865 C   0  0  0  0  0  0  0  0  0  0  0  0
  -27.0781    1.4176   13.2519 C   0  0  0  0  0  0  0  0  0  0  0  0
  -26.3878    2.5961   12.9684 C   0  0  0  0  0  0  0  0  0  0  0  0
  -26.5261    4.5925   12.9714 H   0  0  0  0  0  0  0  0  0  0  0  0
  1  6  1  0  0  0
  2  7  1  0  0  0
 13 19  1  0  0  0
  3 11  1  0  0  0
  3  4  1  0  0  0
  3  5  2  0  0  0
 14 12  1  0  0  0
 14 15  1  0  0  0
 14 16  2  0  0  0
 11 12  2  0  0  0
  4  7  2  0  0  0
  5  6  1  0  0  0
  6  8  2  0  0  0
  7  8  1  0  0  0
 15 17  2  0  0  0
 16 18  1  0  0  0
 17 19  1  0  0  0
 18 19  2  0  0  0
  1  9  1  0  0  0
  2 10  1  0  0  0
 13 20  1  0  0  0
M  END
> <PUBCHEM_COMPOUND_CID>
445154

> <PUBCHEM_CONFORMER_RMSD>
0.6

> <PUBCHEM_CONFORMER_DIVERSEORDER>
2
1

> <PUBCHEM_MMFF94_PARTIAL_CHARGES>
29
1 -0.53
10 0.08
11 0.08
12 -0.15
13 -0.15
14 -0.15
15 -0.15
16 -0.15
17 0.08
18 0.15
19 0.15
2 -0.53
20 0.15
21 0.15
22 0.15
23 0.15
24 0.15
25 0.15
26 0.15
27 0.45
28 0.45
29 0.45
3 -0.53
4 0.03
5 0.03
6 -0.18
7 -0.18
8 -0.15
9 -0.15

> <PUBCHEM_EFFECTIVE_ROTOR_COUNT>
2

> <PUBCHEM_PHARMACOPHORE_FEATURES>
5
1 1 donor
1 2 donor
1 3 donor
6 4 8 9 10 11 14 rings
6 5 12 13 15 16 17 rings

> <PUBCHEM_HEAVY_ATOM_COUNT>
17

> <PUBCHEM_ATOM_DEF_STEREO_COUNT>
0

> <PUBCHEM_ATOM_UDEF_STEREO_COUNT>
0

> <PUBCHEM_BOND_DEF_STEREO_COUNT>
1

> <PUBCHEM_BOND_UDEF_STEREO_COUNT>
0

> <PUBCHEM_ISOTOPIC_ATOM_COUNT>
0

> <PUBCHEM_COMPONENT_COUNT>
1

> <PUBCHEM_CACTVS_TAUTO_COUNT>
20

> <PUBCHEM_CONFORMER_ID>
0006CAE200000002

> <PUBCHEM_MMFF94_ENERGY>
49.607

> <PUBCHEM_FEATURE_SELFOVERLAP>
25.373

> <PUBCHEM_SHAPE_FINGERPRINT>
10014705 185 18113896031716294869
10595046 47 18336547204748856716
10616163 171 18411139168604729455
10912923 1 18187081750179493368
11315181 36 18408040727672988104
12107183 9 17759799252039973274
12236239 1 18409449181189184810
12670546 56 18335415789967024916
13167823 11 18409165519488960790
13288520 33 18341894117163180047
13583140 156 17418363684266412222
13675066 3 17917988373888227614
13760787 5 17095249124728923956
14251718 22 18342739650105047618
14508225 48 18268695264937878261
14528608 73 18261398892510980172
15042514 8 18197498635496392455
15196674 1 18410012152227455220
15788980 27 18335424569011851848
17834072 33 18335421296283708566
17844677 252 18342745143141762304
18186145 218 16805040731158450208
18681886 176 18341610452132742322
19489759 90 18273493468396678499
200 152 18409728490811561187
20279233 1 16343705430420501028
20281475 54 18334286548670597554
20300324 65 18411419544506804761
20612939 158 17531251699174972428
20645477 56 18343023242838589761
20645477 70 18113333094642728002
21033648 29 16199857384941753498
21065198 48 18335136479680159738
21267235 1 18336553788659707179
21426921 1 18413670210707749065
21709351 56 18333446543356635732
22646028 1 18408039628150693958
2297311 6 18060430126488230821
2306618 200 18060146427472796449
23402539 116 18411415107288824917
23402655 69 18334859407387734340
23557571 272 18131357401076973429
23559900 14 18341321301327255049
29717793 49 18412825789666403054
300161 21 18334006181684594920
34797466 226 17559968769623523516
3545911 37 18342178830044039441
4214541 1 18410292501738007581
474 4 17387136575323497100
4990 188 18272660034662488046
5104073 3 18407759244275226768
542803 24 18342177765198079148
559249 180 18410570643915243458
573450 72 18410005520634134347
6327066 14 18045495310569268317
67856867 119 18336545040212544260
7495541 125 17774720977917645392
77779 3 18409731759423929284
9709674 26 18409738356367816490
9971528 1 17822009839695352596

> <PUBCHEM_SHAPE_MULTIPOLES>
332.24
12.88
1.74
0.72
5.99
0.25
0
-0.98
-0.25
-2.21
0.01
0.19
0.01
-1.17

> <PUBCHEM_SHAPE_SELFOVERLAP>
719.006

> <PUBCHEM_SHAPE_VOLUME>
182.8

> <PUBCHEM_COORDINATE_TYPE>
2
5
10

> <minimizedAffinity>
-3.61934

> <CNNscore>
0.5611652136

> <CNNaffinity>
3.6890168190

> <CNN_VS>
2.0701479912

> <CNNaffinity_variance>
0.0424257144

$$$$
445154


 20 21  0  0  0  0  0  0  0  0999 V2000
  -18.4616   -6.1137   12.2112 O   0  0  0  0  0  0  0  0  0  0  0  0
  -20.6869   -1.9121   11.7867 O   0  0  0  0  0  0  0  0  0  0  0  0
  -21.4160   -5.1596   10.3026 C   0  0  0  0  0  0  0  0  0  0  0  0
  -21.5258   -3.8142   10.6133 C   0  0  0  0  0  0  0  0  0  0  0  0
  -20.3990   -5.9404   10.8276 C   0  0  0  0  0  0  0  0  0  0  0  0
  -19.4662   -5.3596   11.6869 C   0  0  0  0  0  0  0  0  0  0  0  0
  -20.5931   -3.2333   11.4726 C   0  0  0  0  0  0  0  0  0  0  0  0
  -19.5634   -4.0061   12.0094 C   0  0  0  0  0  0  0  0  0  0  0  0
  -18.3963   -7.0230   11.9946 H   0  0  0  0  0  0  0  0  0  0  0  0
  -21.3786   -1.3928   11.4263 H   0  0  0  0  0  0  0  0  0  0  0  0
  -22.4008   -5.7729    9.3938 C   0  0  0  0  0  0  0  0  0  0  0  0
  -22.1157   -6.6872    8.4366 C   0  0  0  0  0  0  0  0  0  0  0  0
  -25.8687   -9.0775    5.0283 O   0  0  0  0  0  0  0  0  0  0  0  0
  -23.0899   -7.3070    7.5523 C   0  0  0  0  0  0  0  0  0  0  0  0
  -24.3342   -7.6959    8.0481 C   0  0  0  0  0  0  0  0  0  0  0  0
  -22.7793   -7.5129    6.2080 C   0  0  0  0  0  0  0  0  0  0  0  0
  -25.2680   -8.2909    7.1998 C   0  0  0  0  0  0  0  0  0  0  0  0
  -23.7133   -8.1077    5.3597 C   0  0  0  0  0  0  0  0  0  0  0  0
  -24.9576   -8.4968    5.8556 C   0  0  0  0  0  0  0  0  0  0  0  0
  -26.7045   -9.3389    5.3616 H   0  0  0  0  0  0  0  0  0  0  0  0
  1  6  1  0  0  0
  2  7  1  0  0  0
 13 19  1  0  0  0
  3 11  1  0  0  0
  3  4  1  0  0  0
  3  5  2  0  0  0
 14 12  1  0  0  0
 14 15  1  0  0  0
 14 16  2  0  0  0
 11 12  2  0  0  0
  4  7  2  0  0  0
  5  6  1  0  0  0
  6  8  2  0  0  0
  7  8  1  0  0  0
 15 17  2  0  0  0
 16 18  1  0  0  0
 17 19  1  0  0  0
 18 19  2  0  0  0
  1  9  1  0  0  0
  2 10  1  0  0  0
 13 20  1  0  0  0
M  END
> <PUBCHEM_COMPOUND_CID>
445154

> <PUBCHEM_CONFORMER_RMSD>
0.6

> <PUBCHEM_CONFORMER_DIVERSEORDER>
2
1

> <PUBCHEM_MMFF94_PARTIAL_CHARGES>
29
1 -0.53
10 0.08
11 0.08
12 -0.15
13 -0.15
14 -0.15
15 -0.15
16 -0.15
17 0.08
18 0.15
19 0.15
2 -0.53
20 0.15
21 0.15
22 0.15
23 0.15
24 0.15
25 0.15
26 0.15
27 0.45
28 0.45
29 0.45
3 -0.53
4 0.03
5 0.03
6 -0.18
7 -0.18
8 -0.15
9 -0.15

> <PUBCHEM_EFFECTIVE_ROTOR_COUNT>
2

> <PUBCHEM_PHARMACOPHORE_FEATURES>
5
1 1 donor
1 2 donor
1 3 donor
6 4 8 9 10 11 14 rings
6 5 12 13 15 16 17 rings

> <PUBCHEM_HEAVY_ATOM_COUNT>
17

> <PUBCHEM_ATOM_DEF_STEREO_COUNT>
0

> <PUBCHEM_ATOM_UDEF_STEREO_COUNT>
0

> <PUBCHEM_BOND_DEF_STEREO_COUNT>
1

> <PUBCHEM_BOND_UDEF_STEREO_COUNT>
0

> <PUBCHEM_ISOTOPIC_ATOM_COUNT>
0

> <PUBCHEM_COMPONENT_COUNT>
1

> <PUBCHEM_CACTVS_TAUTO_COUNT>
20

> <PUBCHEM_CONFORMER_ID>
0006CAE200000002

> <PUBCHEM_MMFF94_ENERGY>
49.607

> <PUBCHEM_FEATURE_SELFOVERLAP>
25.373

> <PUBCHEM_SHAPE_FINGERPRINT>
10014705 185 18113896031716294869
10595046 47 18336547204748856716
10616163 171 18411139168604729455
10912923 1 18187081750179493368
11315181 36 18408040727672988104
12107183 9 17759799252039973274
12236239 1 18409449181189184810
12670546 56 18335415789967024916
13167823 11 18409165519488960790
13288520 33 18341894117163180047
13583140 156 17418363684266412222
13675066 3 17917988373888227614
13760787 5 17095249124728923956
14251718 22 18342739650105047618
14508225 48 18268695264937878261
14528608 73 18261398892510980172
15042514 8 18197498635496392455
15196674 1 18410012152227455220
15788980 27 18335424569011851848
17834072 33 18335421296283708566
17844677 252 18342745143141762304
18186145 218 16805040731158450208
18681886 176 18341610452132742322
19489759 90 18273493468396678499
200 152 18409728490811561187
20279233 1 16343705430420501028
20281475 54 18334286548670597554
20300324 65 18411419544506804761
20612939 158 17531251699174972428
20645477 56 18343023242838589761
20645477 70 18113333094642728002
21033648 29 16199857384941753498
21065198 48 18335136479680159738
21267235 1 18336553788659707179
21426921 1 18413670210707749065
21709351 56 18333446543356635732
22646028 1 18408039628150693958
2297311 6 18060430126488230821
2306618 200 18060146427472796449
23402539 116 18411415107288824917
23402655 69 18334859407387734340
23557571 272 18131357401076973429
23559900 14 18341321301327255049
29717793 49 18412825789666403054
300161 21 18334006181684594920
34797466 226 17559968769623523516
3545911 37 18342178830044039441
4214541 1 18410292501738007581
474 4 17387136575323497100
4990 188 18272660034662488046
5104073 3 18407759244275226768
542803 24 18342177765198079148
559249 180 18410570643915243458
573450 72 18410005520634134347
6327066 14 18045495310569268317
67856867 119 18336545040212544260
7495541 125 17774720977917645392
77779 3 18409731759423929284
9709674 26 18409738356367816490
9971528 1 17822009839695352596

> <PUBCHEM_SHAPE_MULTIPOLES>
332.24
12.88
1.74
0.72
5.99
0.25
0
-0.98
-0.25
-2.21
0.01
0.19
0.01
-1.17

> <PUBCHEM_SHAPE_SELFOVERLAP>
719.006

> <PUBCHEM_SHAPE_VOLUME>
182.8

> <PUBCHEM_COORDINATE_TYPE>
2
5
10

> <minimizedAffinity>
-4.12341

> <CNNscore>
0.5528210998

> <CNNaffinity>
4.2368383408

> <CNN_VS>
2.3422136307

> <CNNaffinity_variance>
0.1232071295

$$$$
445154


 20 21  0  0  0  0  0  0  0  0999 V2000
  -22.5058   -8.2838    8.5278 O   0  0  0  0  0  0  0  0  0  0  0  0
  -22.9961   -4.5879    5.5469 O   0  0  0  0  0  0  0  0  0  0  0  0
  -23.9309   -4.9703    9.0483 C   0  0  0  0  0  0  0  0  0  0  0  0
  -23.7640   -4.3958    7.7990 C   0  0  0  0  0  0  0  0  0  0  0  0
  -23.5165   -6.2666    9.3073 C   0  0  0  0  0  0  0  0  0  0  0  0
  -22.9187   -7.0090    8.2887 C   0  0  0  0  0  0  0  0  0  0  0  0
  -23.1662   -5.1380    6.7803 C   0  0  0  0  0  0  0  0  0  0  0  0
  -22.7436   -6.4445    7.0253 C   0  0  0  0  0  0  0  0  0  0  0  0
  -22.6234   -8.6630    9.3765 H   0  0  0  0  0  0  0  0  0  0  0  0
  -23.2799   -3.7103    5.3821 H   0  0  0  0  0  0  0  0  0  0  0  0
  -24.5635   -4.1864   10.1241 C   0  0  0  0  0  0  0  0  0  0  0  0
  -24.2045   -2.9335   10.4911 C   0  0  0  0  0  0  0  0  0  0  0  0
  -26.6585    0.0788   14.5309 O   0  0  0  0  0  0  0  0  0  0  0  0
  -24.8410   -2.1522   11.5398 C   0  0  0  0  0  0  0  0  0  0  0  0
  -25.6972   -2.7720   12.4497 C   0  0  0  0  0  0  0  0  0  0  0  0
  -24.5953   -0.7823   11.6351 C   0  0  0  0  0  0  0  0  0  0  0  0
  -26.3080   -2.0223   13.4549 C   0  0  0  0  0  0  0  0  0  0  0  0
  -25.2059   -0.0326   12.6405 C   0  0  0  0  0  0  0  0  0  0  0  0
  -26.0623   -0.6525   13.5503 C   0  0  0  0  0  0  0  0  0  0  0  0
  -27.2338   -0.3378   15.1420 H   0  0  0  0  0  0  0  0  0  0  0  0
  1  6  1  0  0  0
  2  7  1  0  0  0
 13 19  1  0  0  0
  3 11  1  0  0  0
  3  4  1  0  0  0
  3  5  2  0  0  0
 14 12  1  0  0  0
 14 15  1  0  0  0
 14 16  2  0  0  0
 11 12  2  0  0  0
  4  7  2  0  0  0
  5  6  1  0  0  0
  6  8  2  0  0  0
  7  8  1  0  0  0
 15 17  2  0  0  0
 16 18  1  0  0  0
 17 19  1  0  0  0
 18 19  2  0  0  0
  1  9  1  0  0  0
  2 10  1  0  0  0
 13 20  1  0  0  0
M  END
> <PUBCHEM_COMPOUND_CID>
445154

> <PUBCHEM_CONFORMER_RMSD>
0.6

> <PUBCHEM_CONFORMER_DIVERSEORDER>
2
1

> <PUBCHEM_MMFF94_PARTIAL_CHARGES>
29
1 -0.53
10 0.08
11 0.08
12 -0.15
13 -0.15
14 -0.15
15 -0.15
16 -0.15
17 0.08
18 0.15
19 0.15
2 -0.53
20 0.15
21 0.15
22 0.15
23 0.15
24 0.15
25 0.15
26 0.15
27 0.45
28 0.45
29 0.45
3 -0.53
4 0.03
5 0.03
6 -0.18
7 -0.18
8 -0.15
9 -0.15

> <PUBCHEM_EFFECTIVE_ROTOR_COUNT>
2

> <PUBCHEM_PHARMACOPHORE_FEATURES>
5
1 1 donor
1 2 donor
1 3 donor
6 4 8 9 10 11 14 rings
6 5 12 13 15 16 17 rings

> <PUBCHEM_HEAVY_ATOM_COUNT>
17

> <PUBCHEM_ATOM_DEF_STEREO_COUNT>
0

> <PUBCHEM_ATOM_UDEF_STEREO_COUNT>
0

> <PUBCHEM_BOND_DEF_STEREO_COUNT>
1

> <PUBCHEM_BOND_UDEF_STEREO_COUNT>
0

> <PUBCHEM_ISOTOPIC_ATOM_COUNT>
0

> <PUBCHEM_COMPONENT_COUNT>
1

> <PUBCHEM_CACTVS_TAUTO_COUNT>
20

> <PUBCHEM_CONFORMER_ID>
0006CAE200000002

> <PUBCHEM_MMFF94_ENERGY>
49.607

> <PUBCHEM_FEATURE_SELFOVERLAP>
25.373

> <PUBCHEM_SHAPE_FINGERPRINT>
10014705 185 18113896031716294869
10595046 47 18336547204748856716
10616163 171 18411139168604729455
10912923 1 18187081750179493368
11315181 36 18408040727672988104
12107183 9 17759799252039973274
12236239 1 18409449181189184810
12670546 56 18335415789967024916
13167823 11 18409165519488960790
13288520 33 18341894117163180047
13583140 156 17418363684266412222
13675066 3 17917988373888227614
13760787 5 17095249124728923956
14251718 22 18342739650105047618
14508225 48 18268695264937878261
14528608 73 18261398892510980172
15042514 8 18197498635496392455
15196674 1 18410012152227455220
15788980 27 18335424569011851848
17834072 33 18335421296283708566
17844677 252 18342745143141762304
18186145 218 16805040731158450208
18681886 176 18341610452132742322
19489759 90 18273493468396678499
200 152 18409728490811561187
20279233 1 16343705430420501028
20281475 54 18334286548670597554
20300324 65 18411419544506804761
20612939 158 17531251699174972428
20645477 56 18343023242838589761
20645477 70 18113333094642728002
21033648 29 16199857384941753498
21065198 48 18335136479680159738
21267235 1 18336553788659707179
21426921 1 18413670210707749065
21709351 56 18333446543356635732
22646028 1 18408039628150693958
2297311 6 18060430126488230821
2306618 200 18060146427472796449
23402539 116 18411415107288824917
23402655 69 18334859407387734340
23557571 272 18131357401076973429
23559900 14 18341321301327255049
29717793 49 18412825789666403054
300161 21 18334006181684594920
34797466 226 17559968769623523516
3545911 37 18342178830044039441
4214541 1 18410292501738007581
474 4 17387136575323497100
4990 188 18272660034662488046
5104073 3 18407759244275226768
542803 24 18342177765198079148
559249 180 18410570643915243458
573450 72 18410005520634134347
6327066 14 18045495310569268317
67856867 119 18336545040212544260
7495541 125 17774720977917645392
77779 3 18409731759423929284
9709674 26 18409738356367816490
9971528 1 17822009839695352596

> <PUBCHEM_SHAPE_MULTIPOLES>
332.24
12.88
1.74
0.72
5.99
0.25
0
-0.98
-0.25
-2.21
0.01
0.19
0.01
-1.17

> <PUBCHEM_SHAPE_SELFOVERLAP>
719.006

> <PUBCHEM_SHAPE_VOLUME>
182.8

> <PUBCHEM_COORDINATE_TYPE>
2
5
10

> <minimizedAffinity>
-3.93212

> <CNNscore>
0.5449138880

> <CNNaffinity>
3.6766877174

> <CNN_VS>
2.0034782887

> <CNNaffinity_variance>
0.0562274158

$$$$
445154


 20 21  0  0  0  0  0  0  0  0999 V2000
  -17.8474   -6.0288   10.9170 O   0  0  0  0  0  0  0  0  0  0  0  0
  -20.6996   -3.0813   13.3589 O   0  0  0  0  0  0  0  0  0  0  0  0
  -21.4616   -5.5732   10.8113 C   0  0  0  0  0  0  0  0  0  0  0  0
  -21.6446   -4.5769   11.7562 C   0  0  0  0  0  0  0  0  0  0  0  0
  -20.2009   -6.0681   10.5198 C   0  0  0  0  0  0  0  0  0  0  0  0
  -19.0926   -5.5525   11.1919 C   0  0  0  0  0  0  0  0  0  0  0  0
  -20.5364   -4.0613   12.4284 C   0  0  0  0  0  0  0  0  0  0  0  0
  -19.2604   -4.5491   12.1461 C   0  0  0  0  0  0  0  0  0  0  0  0
  -17.7346   -6.7029   10.2760 H   0  0  0  0  0  0  0  0  0  0  0  0
  -21.5566   -2.7534   13.5486 H   0  0  0  0  0  0  0  0  0  0  0  0
  -22.6324   -6.1170   10.1005 C   0  0  0  0  0  0  0  0  0  0  0  0
  -23.0487   -5.7292    8.8718 C   0  0  0  0  0  0  0  0  0  0  0  0
  -27.4590   -7.8468    6.1367 O   0  0  0  0  0  0  0  0  0  0  0  0
  -24.1928   -6.2790    8.1618 C   0  0  0  0  0  0  0  0  0  0  0  0
  -24.3215   -6.0816    6.7871 C   0  0  0  0  0  0  0  0  0  0  0  0
  -25.1617   -7.0035    8.8561 C   0  0  0  0  0  0  0  0  0  0  0  0
  -25.4192   -6.6085    6.1066 C   0  0  0  0  0  0  0  0  0  0  0  0
  -26.2592   -7.5306    8.1755 C   0  0  0  0  0  0  0  0  0  0  0  0
  -26.3881   -7.3330    6.8007 C   0  0  0  0  0  0  0  0  0  0  0  0
  -27.5454   -7.7139    5.2131 H   0  0  0  0  0  0  0  0  0  0  0  0
  1  6  1  0  0  0
  2  7  1  0  0  0
 13 19  1  0  0  0
  3 11  1  0  0  0
  3  4  1  0  0  0
  3  5  2  0  0  0
 14 12  1  0  0  0
 14 15  1  0  0  0
 14 16  2  0  0  0
 11 12  2  0  0  0
  4  7  2  0  0  0
  5  6  1  0  0  0
  6  8  2  0  0  0
  7  8  1  0  0  0
 15 17  2  0  0  0
 16 18  1  0  0  0
 17 19  1  0  0  0
 18 19  2  0  0  0
  1  9  1  0  0  0
  2 10  1  0  0  0
 13 20  1  0  0  0
M  END
> <PUBCHEM_COMPOUND_CID>
445154

> <PUBCHEM_CONFORMER_RMSD>
0.6

> <PUBCHEM_CONFORMER_DIVERSEORDER>
2
1

> <PUBCHEM_MMFF94_PARTIAL_CHARGES>
29
1 -0.53
10 0.08
11 0.08
12 -0.15
13 -0.15
14 -0.15
15 -0.15
16 -0.15
17 0.08
18 0.15
19 0.15
2 -0.53
20 0.15
21 0.15
22 0.15
23 0.15
24 0.15
25 0.15
26 0.15
27 0.45
28 0.45
29 0.45
3 -0.53
4 0.03
5 0.03
6 -0.18
7 -0.18
8 -0.15
9 -0.15

> <PUBCHEM_EFFECTIVE_ROTOR_COUNT>
2

> <PUBCHEM_PHARMACOPHORE_FEATURES>
5
1 1 donor
1 2 donor
1 3 donor
6 4 8 9 10 11 14 rings
6 5 12 13 15 16 17 rings

> <PUBCHEM_HEAVY_ATOM_COUNT>
17

> <PUBCHEM_ATOM_DEF_STEREO_COUNT>
0

> <PUBCHEM_ATOM_UDEF_STEREO_COUNT>
0

> <PUBCHEM_BOND_DEF_STEREO_COUNT>
1

> <PUBCHEM_BOND_UDEF_STEREO_COUNT>
0

> <PUBCHEM_ISOTOPIC_ATOM_COUNT>
0

> <PUBCHEM_COMPONENT_COUNT>
1

> <PUBCHEM_CACTVS_TAUTO_COUNT>
20

> <PUBCHEM_CONFORMER_ID>
0006CAE200000002

> <PUBCHEM_MMFF94_ENERGY>
49.607

> <PUBCHEM_FEATURE_SELFOVERLAP>
25.373

> <PUBCHEM_SHAPE_FINGERPRINT>
10014705 185 18113896031716294869
10595046 47 18336547204748856716
10616163 171 18411139168604729455
10912923 1 18187081750179493368
11315181 36 18408040727672988104
12107183 9 17759799252039973274
12236239 1 18409449181189184810
12670546 56 18335415789967024916
13167823 11 18409165519488960790
13288520 33 18341894117163180047
13583140 156 17418363684266412222
13675066 3 17917988373888227614
13760787 5 17095249124728923956
14251718 22 18342739650105047618
14508225 48 18268695264937878261
14528608 73 18261398892510980172
15042514 8 18197498635496392455
15196674 1 18410012152227455220
15788980 27 18335424569011851848
17834072 33 18335421296283708566
17844677 252 18342745143141762304
18186145 218 16805040731158450208
18681886 176 18341610452132742322
19489759 90 18273493468396678499
200 152 18409728490811561187
20279233 1 16343705430420501028
20281475 54 18334286548670597554
20300324 65 18411419544506804761
20612939 158 17531251699174972428
20645477 56 18343023242838589761
20645477 70 18113333094642728002
21033648 29 16199857384941753498
21065198 48 18335136479680159738
21267235 1 18336553788659707179
21426921 1 18413670210707749065
21709351 56 18333446543356635732
22646028 1 18408039628150693958
2297311 6 18060430126488230821
2306618 200 18060146427472796449
23402539 116 18411415107288824917
23402655 69 18334859407387734340
23557571 272 18131357401076973429
23559900 14 18341321301327255049
29717793 49 18412825789666403054
300161 21 18334006181684594920
34797466 226 17559968769623523516
3545911 37 18342178830044039441
4214541 1 18410292501738007581
474 4 17387136575323497100
4990 188 18272660034662488046
5104073 3 18407759244275226768
542803 24 18342177765198079148
559249 180 18410570643915243458
573450 72 18410005520634134347
6327066 14 18045495310569268317
67856867 119 18336545040212544260
7495541 125 17774720977917645392
77779 3 18409731759423929284
9709674 26 18409738356367816490
9971528 1 17822009839695352596

> <PUBCHEM_SHAPE_MULTIPOLES>
332.24
12.88
1.74
0.72
5.99
0.25
0
-0.98
-0.25
-2.21
0.01
0.19
0.01
-1.17

> <PUBCHEM_SHAPE_SELFOVERLAP>
719.006

> <PUBCHEM_SHAPE_VOLUME>
182.8

> <PUBCHEM_COORDINATE_TYPE>
2
5
10

> <minimizedAffinity>
-3.78189

> <CNNscore>
0.5269646049

> <CNNaffinity>
4.0154504776

> <CNN_VS>
2.1160001755

> <CNNaffinity_variance>
0.0337471031

$$$$
