5280343


 27 29  0  0  0  0  0  0  0  0999 V2000
  -20.2811   -1.7760   11.8602 O   0  0  0  0  0  0  0  0  0  0  0  0
  -19.0567   -4.8858   10.3052 O   0  0  0  0  0  0  0  0  0  0  0  0
  -15.8180   -0.7747   10.2582 O   0  0  0  0  0  0  0  0  0  0  0  0
  -16.9311   -3.1232    9.9715 O   0  0  0  0  0  0  0  0  0  0  0  0
  -18.4094    2.5461   12.4494 O   0  0  0  0  0  0  0  0  0  0  0  0
  -18.0406   -1.3356   11.0368 C   0  0  0  0  0  0  0  0  0  0  0  0
  -19.2141   -0.9359   11.6724 C   0  0  0  0  0  0  0  0  0  0  0  0
  -20.1819   -3.0824   11.4080 C   0  0  0  0  0  0  0  0  0  0  0  0
  -19.1104   -3.5902   10.7720 C   0  0  0  0  0  0  0  0  0  0  0  0
  -17.9343   -2.7168   10.5424 C   0  0  0  0  0  0  0  0  0  0  0  0
  -16.9852   -0.4348   10.8723 C   0  0  0  0  0  0  0  0  0  0  0  0
  -19.3404    0.3695   12.1480 C   0  0  0  0  0  0  0  0  0  0  0  0
  -18.2889    1.2718   11.9860 C   0  0  0  0  0  0  0  0  0  0  0  0
  -17.1138    0.8701   11.3495 C   0  0  0  0  0  0  0  0  0  0  0  0
  -19.7846   -5.4613   10.4353 H   0  0  0  0  0  0  0  0  0  0  0  0
  -15.6988   -1.6428    9.9262 H   0  0  0  0  0  0  0  0  0  0  0  0
  -19.1982    2.8165   12.8769 H   0  0  0  0  0  0  0  0  0  0  0  0
  -24.9430   -3.8762   10.7879 O   0  0  0  0  0  0  0  0  0  0  0  0
  -24.8077   -6.1203   12.4212 O   0  0  0  0  0  0  0  0  0  0  0  0
  -21.3955   -3.8757   11.6719 C   0  0  0  0  0  0  0  0  0  0  0  0
  -22.6120   -3.5012   11.1007 C   0  0  0  0  0  0  0  0  0  0  0  0
  -21.3284   -5.0015   12.4930 C   0  0  0  0  0  0  0  0  0  0  0  0
  -23.7607   -4.2524   11.3501 C   0  0  0  0  0  0  0  0  0  0  0  0
  -22.4772   -5.7524   12.7427 C   0  0  0  0  0  0  0  0  0  0  0  0
  -23.6933   -5.3779   12.1711 C   0  0  0  0  0  0  0  0  0  0  0  0
  -24.9800   -3.1188   10.2375 H   0  0  0  0  0  0  0  0  0  0  0  0
  -25.6286   -5.8758   12.0412 H   0  0  0  0  0  0  0  0  0  0  0  0
  1  7  1  0  0  0
  1  8  1  0  0  0
  2  9  1  0  0  0
  3 11  1  0  0  0
  4 10  2  0  0  0
  5 13  1  0  0  0
 18 23  1  0  0  0
 19 25  1  0  0  0
  6  7  1  0  0  0
  6 10  1  0  0  0
  6 11  2  0  0  0
  7 12  2  0  0  0
  8 20  1  0  0  0
  8  9  2  0  0  0
 20 21  2  0  0  0
 20 22  1  0  0  0
  9 10  1  0  0  0
 11 14  1  0  0  0
 12 13  1  0  0  0
 13 14  2  0  0  0
 21 23  1  0  0  0
 22 24  2  0  0  0
 23 25  2  0  0  0
 24 25  1  0  0  0
  2 15  1  0  0  0
  3 16  1  0  0  0
  5 17  1  0  0  0
 18 26  1  0  0  0
 19 27  1  0  0  0
M  END
> <PUBCHEM_COMPOUND_CID>
5280343

> <PUBCHEM_CONFORMER_RMSD>
0.6

> <PUBCHEM_CONFORMER_DIVERSEORDER>
2
3
4
1

> <PUBCHEM_MMFF94_PARTIAL_CHARGES>
32
1 -0.16
10 0.05
11 0.03
12 0.09
13 0.47
14 0.08
15 -0.15
16 0.08
17 -0.15
18 -0.15
19 -0.15
2 -0.53
20 0.08
21 -0.15
22 0.08
23 0.15
24 0.15
25 0.15
26 0.15
27 0.15
28 0.45
29 0.45
3 -0.53
30 0.45
31 0.45
32 0.45
4 -0.57
5 -0.53
6 -0.53
7 -0.53
8 0.09
9 0.08

> <PUBCHEM_EFFECTIVE_ROTOR_COUNT>
1

> <PUBCHEM_PHARMACOPHORE_FEATURES>
10
1 1 acceptor
1 2 donor
1 3 donor
1 4 acceptor
1 5 donor
1 6 donor
1 7 donor
6 1 8 9 10 12 13 rings
6 11 17 19 20 21 22 rings
6 8 9 14 15 16 18 rings

> <PUBCHEM_HEAVY_ATOM_COUNT>
22

> <PUBCHEM_ATOM_DEF_STEREO_COUNT>
0

> <PUBCHEM_ATOM_UDEF_STEREO_COUNT>
0

> <PUBCHEM_BOND_DEF_STEREO_COUNT>
0

> <PUBCHEM_BOND_UDEF_STEREO_COUNT>
0

> <PUBCHEM_ISOTOPIC_ATOM_COUNT>
0

> <PUBCHEM_COMPONENT_COUNT>
1

> <PUBCHEM_CACTVS_TAUTO_COUNT>
435

> <PUBCHEM_CONFORMER_ID>
0050925700000002

> <PUBCHEM_MMFF94_ENERGY>
67.9013

> <PUBCHEM_FEATURE_SELFOVERLAP>
50.781

> <PUBCHEM_SHAPE_FINGERPRINT>
10062212 137 18187366532376097179
10319926 262 18198887155530876618
10411042 1 18267306624464364199
10616163 171 18411422791027885687
11045977 3 17988636389587437640
11046707 91 18409731781088721831
11132069 177 18342179934140791333
11370993 144 16773248296511877579
11552529 35 14260485002790182821
12107183 9 17540809500193799274
12236239 1 17821733810620706086
12363563 72 18339368581624426103
12553582 1 18408889555155666595
13140716 1 18340771541661452937
13288520 33 18411422821308590263
13675066 3 17775002409702089546
14386348 63 17846783983788497886
15042514 8 18410580587265310395
15099037 37 18343299271068437565
15196674 1 18411421755945834109
16752209 62 18334289868595986291
16945 1 18411422778686062261
17349148 13 17748826302436736570
17804303 29 18413671322582201833
1813 80 17458069226905034038
18186145 218 12612750207294412564
18222031 100 18270959167125326031
18681886 176 18336270124256880678
19141452 34 17775287205258622471
200 152 16660645137605500828
20028762 73 17986393510885979071
21033648 29 17131540674461138658
21065201 7 18342460283973285510
21267235 1 18337399322303363739
21728266 224 18261944198090091298
2297311 6 18342468031962295414
23366157 5 17970912403723827780
23402539 116 18410573976646049422
23557571 272 18129948871279935700
23559900 14 18200040530026961414
25147074 1 18264788703960466501
2838139 119 14691740792871930569
3004659 81 18186521037688015310
312423 11 18190191263647082733
335352 9 18410856577895734581
474 4 17096946861146042884
5104073 3 18340771541286848633
573450 72 18260825981905919954
59755656 215 18268151959405414926
602551 16 18413105061377832954
67856867 119 18188777270541336308
7495541 125 18131914871464346032
77492 1 17676776383674054532
7970288 3 18338799051639604983
9709674 26 18121220046008890539

> <PUBCHEM_SHAPE_MULTIPOLES>
411.66
10.99
2.34
1.06
6.01
0.56
0.11
-4.89
0.67
-3.56
0.02
1.76
-0.17
-0.17

> <PUBCHEM_SHAPE_SELFOVERLAP>
923.873

> <PUBCHEM_SHAPE_VOLUME>
216

> <PUBCHEM_COORDINATE_TYPE>
2
5
10

> <minimizedAffinity>
-6.86270

> <CNNscore>
0.6566736698

> <CNNaffinity>
5.1018218994

> <CNN_VS>
3.3502321243

> <CNNaffinity_variance>
0.2667622864

$$$$
5280343


 27 29  0  0  0  0  0  0  0  0999 V2000
  -23.4128   -3.2916   11.5322 O   0  0  0  0  0  0  0  0  0  0  0  0
  -21.5470   -0.7025   13.3769 O   0  0  0  0  0  0  0  0  0  0  0  0
  -18.9385   -5.0608   12.1147 O   0  0  0  0  0  0  0  0  0  0  0  0
  -19.6594   -2.7119   13.0089 O   0  0  0  0  0  0  0  0  0  0  0  0
  -22.2686   -7.5835    9.8582 O   0  0  0  0  0  0  0  0  0  0  0  0
  -21.1552   -4.1230   11.8544 C   0  0  0  0  0  0  0  0  0  0  0  0
  -22.4560   -4.2609   11.3752 C   0  0  0  0  0  0  0  0  0  0  0  0
  -23.0660   -2.1198   12.1860 C   0  0  0  0  0  0  0  0  0  0  0  0
  -21.8500   -1.8658   12.7029 C   0  0  0  0  0  0  0  0  0  0  0  0
  -20.7846   -2.8874   12.5610 C   0  0  0  0  0  0  0  0  0  0  0  0
  -20.2217   -5.1454   11.6659 C   0  0  0  0  0  0  0  0  0  0  0  0
  -22.8328   -5.4243   10.7037 C   0  0  0  0  0  0  0  0  0  0  0  0
  -21.9037   -6.4473   10.5133 C   0  0  0  0  0  0  0  0  0  0  0  0
  -20.6008   -6.3078   10.9935 C   0  0  0  0  0  0  0  0  0  0  0  0
  -22.1997   -0.0386   13.4825 H   0  0  0  0  0  0  0  0  0  0  0  0
  -18.6511   -4.2941   12.5702 H   0  0  0  0  0  0  0  0  0  0  0  0
  -23.1433   -7.6779    9.5356 H   0  0  0  0  0  0  0  0  0  0  0  0
  -26.8120   -0.2274   14.6495 O   0  0  0  0  0  0  0  0  0  0  0  0
  -27.3314    1.5299   12.5605 O   0  0  0  0  0  0  0  0  0  0  0  0
  -24.1844   -1.1654   12.2869 C   0  0  0  0  0  0  0  0  0  0  0  0
  -24.9815   -1.1429   13.4317 C   0  0  0  0  0  0  0  0  0  0  0  0
  -24.4464   -0.2839   11.2378 C   0  0  0  0  0  0  0  0  0  0  0  0
  -26.0399   -0.2392   13.5274 C   0  0  0  0  0  0  0  0  0  0  0  0
  -25.5050    0.6195   11.3334 C   0  0  0  0  0  0  0  0  0  0  0  0
  -26.3016    0.6419   12.4784 C   0  0  0  0  0  0  0  0  0  0  0  0
  -26.6297   -0.8225   15.3499 H   0  0  0  0  0  0  0  0  0  0  0  0
  -27.8713    1.5517   13.3260 H   0  0  0  0  0  0  0  0  0  0  0  0
  1  7  1  0  0  0
  1  8  1  0  0  0
  2  9  1  0  0  0
  3 11  1  0  0  0
  4 10  2  0  0  0
  5 13  1  0  0  0
 18 23  1  0  0  0
 19 25  1  0  0  0
  6  7  1  0  0  0
  6 10  1  0  0  0
  6 11  2  0  0  0
  7 12  2  0  0  0
  8 20  1  0  0  0
  8  9  2  0  0  0
 20 21  2  0  0  0
 20 22  1  0  0  0
  9 10  1  0  0  0
 11 14  1  0  0  0
 12 13  1  0  0  0
 13 14  2  0  0  0
 21 23  1  0  0  0
 22 24  2  0  0  0
 23 25  2  0  0  0
 24 25  1  0  0  0
  2 15  1  0  0  0
  3 16  1  0  0  0
  5 17  1  0  0  0
 18 26  1  0  0  0
 19 27  1  0  0  0
M  END
> <PUBCHEM_COMPOUND_CID>
5280343

> <PUBCHEM_CONFORMER_RMSD>
0.6

> <PUBCHEM_CONFORMER_DIVERSEORDER>
2
3
4
1

> <PUBCHEM_MMFF94_PARTIAL_CHARGES>
32
1 -0.16
10 0.05
11 0.03
12 0.09
13 0.47
14 0.08
15 -0.15
16 0.08
17 -0.15
18 -0.15
19 -0.15
2 -0.53
20 0.08
21 -0.15
22 0.08
23 0.15
24 0.15
25 0.15
26 0.15
27 0.15
28 0.45
29 0.45
3 -0.53
30 0.45
31 0.45
32 0.45
4 -0.57
5 -0.53
6 -0.53
7 -0.53
8 0.09
9 0.08

> <PUBCHEM_EFFECTIVE_ROTOR_COUNT>
1

> <PUBCHEM_PHARMACOPHORE_FEATURES>
10
1 1 acceptor
1 2 donor
1 3 donor
1 4 acceptor
1 5 donor
1 6 donor
1 7 donor
6 1 8 9 10 12 13 rings
6 11 17 19 20 21 22 rings
6 8 9 14 15 16 18 rings

> <PUBCHEM_HEAVY_ATOM_COUNT>
22

> <PUBCHEM_ATOM_DEF_STEREO_COUNT>
0

> <PUBCHEM_ATOM_UDEF_STEREO_COUNT>
0

> <PUBCHEM_BOND_DEF_STEREO_COUNT>
0

> <PUBCHEM_BOND_UDEF_STEREO_COUNT>
0

> <PUBCHEM_ISOTOPIC_ATOM_COUNT>
0

> <PUBCHEM_COMPONENT_COUNT>
1

> <PUBCHEM_CACTVS_TAUTO_COUNT>
435

> <PUBCHEM_CONFORMER_ID>
0050925700000002

> <PUBCHEM_MMFF94_ENERGY>
67.9013

> <PUBCHEM_FEATURE_SELFOVERLAP>
50.781

> <PUBCHEM_SHAPE_FINGERPRINT>
10062212 137 18187366532376097179
10319926 262 18198887155530876618
10411042 1 18267306624464364199
10616163 171 18411422791027885687
11045977 3 17988636389587437640
11046707 91 18409731781088721831
11132069 177 18342179934140791333
11370993 144 16773248296511877579
11552529 35 14260485002790182821
12107183 9 17540809500193799274
12236239 1 17821733810620706086
12363563 72 18339368581624426103
12553582 1 18408889555155666595
13140716 1 18340771541661452937
13288520 33 18411422821308590263
13675066 3 17775002409702089546
14386348 63 17846783983788497886
15042514 8 18410580587265310395
15099037 37 18343299271068437565
15196674 1 18411421755945834109
16752209 62 18334289868595986291
16945 1 18411422778686062261
17349148 13 17748826302436736570
17804303 29 18413671322582201833
1813 80 17458069226905034038
18186145 218 12612750207294412564
18222031 100 18270959167125326031
18681886 176 18336270124256880678
19141452 34 17775287205258622471
200 152 16660645137605500828
20028762 73 17986393510885979071
21033648 29 17131540674461138658
21065201 7 18342460283973285510
21267235 1 18337399322303363739
21728266 224 18261944198090091298
2297311 6 18342468031962295414
23366157 5 17970912403723827780
23402539 116 18410573976646049422
23557571 272 18129948871279935700
23559900 14 18200040530026961414
25147074 1 18264788703960466501
2838139 119 14691740792871930569
3004659 81 18186521037688015310
312423 11 18190191263647082733
335352 9 18410856577895734581
474 4 17096946861146042884
5104073 3 18340771541286848633
573450 72 18260825981905919954
59755656 215 18268151959405414926
602551 16 18413105061377832954
67856867 119 18188777270541336308
7495541 125 18131914871464346032
77492 1 17676776383674054532
7970288 3 18338799051639604983
9709674 26 18121220046008890539

> <PUBCHEM_SHAPE_MULTIPOLES>
411.66
10.99
2.34
1.06
6.01
0.56
0.11
-4.89
0.67
-3.56
0.02
1.76
-0.17
-0.17

> <PUBCHEM_SHAPE_SELFOVERLAP>
923.873

> <PUBCHEM_SHAPE_VOLUME>
216

> <PUBCHEM_COORDINATE_TYPE>
2
5
10

> <minimizedAffinity>
-6.45839

> <CNNscore>
0.6519538760

> <CNNaffinity>
4.6529607773

> <CNN_VS>
3.0335159302

> <CNNaffinity_variance>
0.0620895326

$$$$
5280343


 27 29  0  0  0  0  0  0  0  0999 V2000
  -19.3195    0.3952   13.9359 O   0  0  0  0  0  0  0  0  0  0  0  0
  -19.1344   -3.2590   13.4883 O   0  0  0  0  0  0  0  0  0  0  0  0
  -18.4380   -0.3077    9.2225 O   0  0  0  0  0  0  0  0  0  0  0  0
  -18.6886   -2.2766   10.9247 O   0  0  0  0  0  0  0  0  0  0  0  0
  -18.9046    4.0809   10.9737 O   0  0  0  0  0  0  0  0  0  0  0  0
  -18.8770   -0.0207   11.5859 C   0  0  0  0  0  0  0  0  0  0  0  0
  -19.1009    0.8404   12.6578 C   0  0  0  0  0  0  0  0  0  0  0  0
  -19.3051   -0.9704   14.1722 C   0  0  0  0  0  0  0  0  0  0  0  0
  -19.1099   -1.9063   13.2254 C   0  0  0  0  0  0  0  0  0  0  0  0
  -18.8740   -1.4716   11.8275 C   0  0  0  0  0  0  0  0  0  0  0  0
  -18.6610    0.4902   10.3035 C   0  0  0  0  0  0  0  0  0  0  0  0
  -19.1110    2.2205   12.4541 C   0  0  0  0  0  0  0  0  0  0  0  0
  -18.8955    2.7346   11.1752 C   0  0  0  0  0  0  0  0  0  0  0  0
  -18.6709    1.8710   10.1024 C   0  0  0  0  0  0  0  0  0  0  0  0
  -19.2813   -3.5639   14.3620 H   0  0  0  0  0  0  0  0  0  0  0  0
  -18.4248   -1.2393    9.3225 H   0  0  0  0  0  0  0  0  0  0  0  0
  -19.0553    4.6614   11.6936 H   0  0  0  0  0  0  0  0  0  0  0  0
  -17.6620   -2.1438   18.6000 O   0  0  0  0  0  0  0  0  0  0  0  0
  -20.2663   -2.2716   19.5608 O   0  0  0  0  0  0  0  0  0  0  0  0
  -19.5535   -1.3121   15.5840 C   0  0  0  0  0  0  0  0  0  0  0  0
  -18.4815   -1.5699   16.4388 C   0  0  0  0  0  0  0  0  0  0  0  0
  -20.8609   -1.3778   16.0665 C   0  0  0  0  0  0  0  0  0  0  0  0
  -18.7166   -1.8928   17.7753 C   0  0  0  0  0  0  0  0  0  0  0  0
  -21.0960   -1.7012   17.4029 C   0  0  0  0  0  0  0  0  0  0  0  0
  -20.0238   -1.9585   18.2574 C   0  0  0  0  0  0  0  0  0  0  0  0
  -16.7867   -2.0976   18.2686 H   0  0  0  0  0  0  0  0  0  0  0  0
  -19.5519   -2.4459   20.1415 H   0  0  0  0  0  0  0  0  0  0  0  0
  1  7  1  0  0  0
  1  8  1  0  0  0
  2  9  1  0  0  0
  3 11  1  0  0  0
  4 10  2  0  0  0
  5 13  1  0  0  0
 18 23  1  0  0  0
 19 25  1  0  0  0
  6  7  1  0  0  0
  6 10  1  0  0  0
  6 11  2  0  0  0
  7 12  2  0  0  0
  8 20  1  0  0  0
  8  9  2  0  0  0
 20 21  2  0  0  0
 20 22  1  0  0  0
  9 10  1  0  0  0
 11 14  1  0  0  0
 12 13  1  0  0  0
 13 14  2  0  0  0
 21 23  1  0  0  0
 22 24  2  0  0  0
 23 25  2  0  0  0
 24 25  1  0  0  0
  2 15  1  0  0  0
  3 16  1  0  0  0
  5 17  1  0  0  0
 18 26  1  0  0  0
 19 27  1  0  0  0
M  END
> <PUBCHEM_COMPOUND_CID>
5280343

> <PUBCHEM_CONFORMER_RMSD>
0.6

> <PUBCHEM_CONFORMER_DIVERSEORDER>
2
3
4
1

> <PUBCHEM_MMFF94_PARTIAL_CHARGES>
32
1 -0.16
10 0.05
11 0.03
12 0.09
13 0.47
14 0.08
15 -0.15
16 0.08
17 -0.15
18 -0.15
19 -0.15
2 -0.53
20 0.08
21 -0.15
22 0.08
23 0.15
24 0.15
25 0.15
26 0.15
27 0.15
28 0.45
29 0.45
3 -0.53
30 0.45
31 0.45
32 0.45
4 -0.57
5 -0.53
6 -0.53
7 -0.53
8 0.09
9 0.08

> <PUBCHEM_EFFECTIVE_ROTOR_COUNT>
1

> <PUBCHEM_PHARMACOPHORE_FEATURES>
10
1 1 acceptor
1 2 donor
1 3 donor
1 4 acceptor
1 5 donor
1 6 donor
1 7 donor
6 1 8 9 10 12 13 rings
6 11 17 19 20 21 22 rings
6 8 9 14 15 16 18 rings

> <PUBCHEM_HEAVY_ATOM_COUNT>
22

> <PUBCHEM_ATOM_DEF_STEREO_COUNT>
0

> <PUBCHEM_ATOM_UDEF_STEREO_COUNT>
0

> <PUBCHEM_BOND_DEF_STEREO_COUNT>
0

> <PUBCHEM_BOND_UDEF_STEREO_COUNT>
0

> <PUBCHEM_ISOTOPIC_ATOM_COUNT>
0

> <PUBCHEM_COMPONENT_COUNT>
1

> <PUBCHEM_CACTVS_TAUTO_COUNT>
435

> <PUBCHEM_CONFORMER_ID>
0050925700000002

> <PUBCHEM_MMFF94_ENERGY>
67.9013

> <PUBCHEM_FEATURE_SELFOVERLAP>
50.781

> <PUBCHEM_SHAPE_FINGERPRINT>
10062212 137 18187366532376097179
10319926 262 18198887155530876618
10411042 1 18267306624464364199
10616163 171 18411422791027885687
11045977 3 17988636389587437640
11046707 91 18409731781088721831
11132069 177 18342179934140791333
11370993 144 16773248296511877579
11552529 35 14260485002790182821
12107183 9 17540809500193799274
12236239 1 17821733810620706086
12363563 72 18339368581624426103
12553582 1 18408889555155666595
13140716 1 18340771541661452937
13288520 33 18411422821308590263
13675066 3 17775002409702089546
14386348 63 17846783983788497886
15042514 8 18410580587265310395
15099037 37 18343299271068437565
15196674 1 18411421755945834109
16752209 62 18334289868595986291
16945 1 18411422778686062261
17349148 13 17748826302436736570
17804303 29 18413671322582201833
1813 80 17458069226905034038
18186145 218 12612750207294412564
18222031 100 18270959167125326031
18681886 176 18336270124256880678
19141452 34 17775287205258622471
200 152 16660645137605500828
20028762 73 17986393510885979071
21033648 29 17131540674461138658
21065201 7 18342460283973285510
21267235 1 18337399322303363739
21728266 224 18261944198090091298
2297311 6 18342468031962295414
23366157 5 17970912403723827780
23402539 116 18410573976646049422
23557571 272 18129948871279935700
23559900 14 18200040530026961414
25147074 1 18264788703960466501
2838139 119 14691740792871930569
3004659 81 18186521037688015310
312423 11 18190191263647082733
335352 9 18410856577895734581
474 4 17096946861146042884
5104073 3 18340771541286848633
573450 72 18260825981905919954
59755656 215 18268151959405414926
602551 16 18413105061377832954
67856867 119 18188777270541336308
7495541 125 18131914871464346032
77492 1 17676776383674054532
7970288 3 18338799051639604983
9709674 26 18121220046008890539

> <PUBCHEM_SHAPE_MULTIPOLES>
411.66
10.99
2.34
1.06
6.01
0.56
0.11
-4.89
0.67
-3.56
0.02
1.76
-0.17
-0.17

> <PUBCHEM_SHAPE_SELFOVERLAP>
923.873

> <PUBCHEM_SHAPE_VOLUME>
216

> <PUBCHEM_COORDINATE_TYPE>
2
5
10

> <minimizedAffinity>
-6.19845

> <CNNscore>
0.4681535363

> <CNNaffinity>
5.2267093658

> <CNN_VS>
2.4469025135

> <CNNaffinity_variance>
0.1983764172

$$$$
5280343


 27 29  0  0  0  0  0  0  0  0999 V2000
  -21.9437   -3.9472   12.7112 O   0  0  0  0  0  0  0  0  0  0  0  0
  -21.2130   -4.2420    9.1102 O   0  0  0  0  0  0  0  0  0  0  0  0
  -17.9847   -1.2575   11.9497 O   0  0  0  0  0  0  0  0  0  0  0  0
  -19.1912   -2.5731   10.0391 O   0  0  0  0  0  0  0  0  0  0  0  0
  -19.8798   -1.6083   16.2891 O   0  0  0  0  0  0  0  0  0  0  0  0
  -19.9626   -2.6169   12.2673 C   0  0  0  0  0  0  0  0  0  0  0  0
  -20.9348   -3.1185   13.1297 C   0  0  0  0  0  0  0  0  0  0  0  0
  -21.9900   -4.3098   11.3743 C   0  0  0  0  0  0  0  0  0  0  0  0
  -21.1194   -3.8885   10.4390 C   0  0  0  0  0  0  0  0  0  0  0  0
  -20.0141   -2.9871   10.8447 C   0  0  0  0  0  0  0  0  0  0  0  0
  -18.9577   -1.7747   12.7502 C   0  0  0  0  0  0  0  0  0  0  0  0
  -20.9092   -2.7802   14.4829 C   0  0  0  0  0  0  0  0  0  0  0  0
  -19.9074   -1.9398   14.9690 C   0  0  0  0  0  0  0  0  0  0  0  0
  -18.9338   -1.4383   14.1042 C   0  0  0  0  0  0  0  0  0  0  0  0
  -21.9009   -4.8102    8.8239 H   0  0  0  0  0  0  0  0  0  0  0  0
  -17.9715   -1.4632   11.0357 H   0  0  0  0  0  0  0  0  0  0  0  0
  -20.5333   -1.9447   16.8704 H   0  0  0  0  0  0  0  0  0  0  0  0
  -26.7663   -5.2418   11.3389 O   0  0  0  0  0  0  0  0  0  0  0  0
  -26.3007   -7.7169   10.1645 O   0  0  0  0  0  0  0  0  0  0  0  0
  -23.1213   -5.2002   11.0592 C   0  0  0  0  0  0  0  0  0  0  0  0
  -24.4261   -4.8002   11.3489 C   0  0  0  0  0  0  0  0  0  0  0  0
  -22.8880   -6.4435   10.4710 C   0  0  0  0  0  0  0  0  0  0  0  0
  -25.4969   -5.6427   11.0502 C   0  0  0  0  0  0  0  0  0  0  0  0
  -23.9588   -7.2862   10.1727 C   0  0  0  0  0  0  0  0  0  0  0  0
  -25.2633   -6.8857   10.4621 C   0  0  0  0  0  0  0  0  0  0  0  0
  -26.9150   -4.4053   11.7339 H   0  0  0  0  0  0  0  0  0  0  0  0
  -27.1801   -7.4557   10.3556 H   0  0  0  0  0  0  0  0  0  0  0  0
  1  7  1  0  0  0
  1  8  1  0  0  0
  2  9  1  0  0  0
  3 11  1  0  0  0
  4 10  2  0  0  0
  5 13  1  0  0  0
 18 23  1  0  0  0
 19 25  1  0  0  0
  6  7  1  0  0  0
  6 10  1  0  0  0
  6 11  2  0  0  0
  7 12  2  0  0  0
  8 20  1  0  0  0
  8  9  2  0  0  0
 20 21  2  0  0  0
 20 22  1  0  0  0
  9 10  1  0  0  0
 11 14  1  0  0  0
 12 13  1  0  0  0
 13 14  2  0  0  0
 21 23  1  0  0  0
 22 24  2  0  0  0
 23 25  2  0  0  0
 24 25  1  0  0  0
  2 15  1  0  0  0
  3 16  1  0  0  0
  5 17  1  0  0  0
 18 26  1  0  0  0
 19 27  1  0  0  0
M  END
> <PUBCHEM_COMPOUND_CID>
5280343

> <PUBCHEM_CONFORMER_RMSD>
0.6

> <PUBCHEM_CONFORMER_DIVERSEORDER>
2
3
4
1

> <PUBCHEM_MMFF94_PARTIAL_CHARGES>
32
1 -0.16
10 0.05
11 0.03
12 0.09
13 0.47
14 0.08
15 -0.15
16 0.08
17 -0.15
18 -0.15
19 -0.15
2 -0.53
20 0.08
21 -0.15
22 0.08
23 0.15
24 0.15
25 0.15
26 0.15
27 0.15
28 0.45
29 0.45
3 -0.53
30 0.45
31 0.45
32 0.45
4 -0.57
5 -0.53
6 -0.53
7 -0.53
8 0.09
9 0.08

> <PUBCHEM_EFFECTIVE_ROTOR_COUNT>
1

> <PUBCHEM_PHARMACOPHORE_FEATURES>
10
1 1 acceptor
1 2 donor
1 3 donor
1 4 acceptor
1 5 donor
1 6 donor
1 7 donor
6 1 8 9 10 12 13 rings
6 11 17 19 20 21 22 rings
6 8 9 14 15 16 18 rings

> <PUBCHEM_HEAVY_ATOM_COUNT>
22

> <PUBCHEM_ATOM_DEF_STEREO_COUNT>
0

> <PUBCHEM_ATOM_UDEF_STEREO_COUNT>
0

> <PUBCHEM_BOND_DEF_STEREO_COUNT>
0

> <PUBCHEM_BOND_UDEF_STEREO_COUNT>
0

> <PUBCHEM_ISOTOPIC_ATOM_COUNT>
0

> <PUBCHEM_COMPONENT_COUNT>
1

> <PUBCHEM_CACTVS_TAUTO_COUNT>
435

> <PUBCHEM_CONFORMER_ID>
0050925700000002

> <PUBCHEM_MMFF94_ENERGY>
67.9013

> <PUBCHEM_FEATURE_SELFOVERLAP>
50.781

> <PUBCHEM_SHAPE_FINGERPRINT>
10062212 137 18187366532376097179
10319926 262 18198887155530876618
10411042 1 18267306624464364199
10616163 171 18411422791027885687
11045977 3 17988636389587437640
11046707 91 18409731781088721831
11132069 177 18342179934140791333
11370993 144 16773248296511877579
11552529 35 14260485002790182821
12107183 9 17540809500193799274
12236239 1 17821733810620706086
12363563 72 18339368581624426103
12553582 1 18408889555155666595
13140716 1 18340771541661452937
13288520 33 18411422821308590263
13675066 3 17775002409702089546
14386348 63 17846783983788497886
15042514 8 18410580587265310395
15099037 37 18343299271068437565
15196674 1 18411421755945834109
16752209 62 18334289868595986291
16945 1 18411422778686062261
17349148 13 17748826302436736570
17804303 29 18413671322582201833
1813 80 17458069226905034038
18186145 218 12612750207294412564
18222031 100 18270959167125326031
18681886 176 18336270124256880678
19141452 34 17775287205258622471
200 152 16660645137605500828
20028762 73 17986393510885979071
21033648 29 17131540674461138658
21065201 7 18342460283973285510
21267235 1 18337399322303363739
21728266 224 18261944198090091298
2297311 6 18342468031962295414
23366157 5 17970912403723827780
23402539 116 18410573976646049422
23557571 272 18129948871279935700
23559900 14 18200040530026961414
25147074 1 18264788703960466501
2838139 119 14691740792871930569
3004659 81 18186521037688015310
312423 11 18190191263647082733
335352 9 18410856577895734581
474 4 17096946861146042884
5104073 3 18340771541286848633
573450 72 18260825981905919954
59755656 215 18268151959405414926
602551 16 18413105061377832954
67856867 119 18188777270541336308
7495541 125 18131914871464346032
77492 1 17676776383674054532
7970288 3 18338799051639604983
9709674 26 18121220046008890539

> <PUBCHEM_SHAPE_MULTIPOLES>
411.66
10.99
2.34
1.06
6.01
0.56
0.11
-4.89
0.67
-3.56
0.02
1.76
-0.17
-0.17

> <PUBCHEM_SHAPE_SELFOVERLAP>
923.873

> <PUBCHEM_SHAPE_VOLUME>
216

> <PUBCHEM_COORDINATE_TYPE>
2
5
10

> <minimizedAffinity>
-5.23583

> <CNNscore>
0.4489142001

> <CNNaffinity>
4.7385067940

> <CNN_VS>
2.1271829605

> <CNNaffinity_variance>
0.2431610078

$$$$
5280343


 27 29  0  0  0  0  0  0  0  0999 V2000
  -20.5048   -0.5512   11.4442 O   0  0  0  0  0  0  0  0  0  0  0  0
  -20.7383    2.6942   13.1766 O   0  0  0  0  0  0  0  0  0  0  0  0
  -15.9553    1.0829   11.7912 O   0  0  0  0  0  0  0  0  0  0  0  0
  -18.0103    2.4099   12.7146 O   0  0  0  0  0  0  0  0  0  0  0  0
  -16.8815   -3.0912    9.7262 O   0  0  0  0  0  0  0  0  0  0  0  0
  -18.2486    0.3205   11.6473 C   0  0  0  0  0  0  0  0  0  0  0  0
  -19.1533   -0.6570   11.2393 C   0  0  0  0  0  0  0  0  0  0  0  0
  -20.9913    0.5834   12.0742 C   0  0  0  0  0  0  0  0  0  0  0  0
  -20.2253    1.5940   12.5240 C   0  0  0  0  0  0  0  0  0  0  0  0
  -18.7572    1.5208   12.3286 C   0  0  0  0  0  0  0  0  0  0  0  0
  -16.8808    0.1582   11.4125 C   0  0  0  0  0  0  0  0  0  0  0  0
  -18.6956   -1.8057   10.5932 C   0  0  0  0  0  0  0  0  0  0  0  0
  -17.3308   -1.9714   10.3567 C   0  0  0  0  0  0  0  0  0  0  0  0
  -16.4255   -0.9913   10.7655 C   0  0  0  0  0  0  0  0  0  0  0  0
  -21.6621    2.7683   13.3149 H   0  0  0  0  0  0  0  0  0  0  0  0
  -16.2271    1.8661   12.2278 H   0  0  0  0  0  0  0  0  0  0  0  0
  -17.4888   -3.7497    9.4514 H   0  0  0  0  0  0  0  0  0  0  0  0
  -25.2338    2.9363   12.4588 O   0  0  0  0  0  0  0  0  0  0  0  0
  -26.5850    0.5178   12.6742 O   0  0  0  0  0  0  0  0  0  0  0  0
  -22.4565    0.5696   12.2319 C   0  0  0  0  0  0  0  0  0  0  0  0
  -23.1655    1.7705   12.2714 C   0  0  0  0  0  0  0  0  0  0  0  0
  -23.1352   -0.6443   12.3415 C   0  0  0  0  0  0  0  0  0  0  0  0
  -24.5525    1.7575   12.4202 C   0  0  0  0  0  0  0  0  0  0  0  0
  -24.5221   -0.6573   12.4907 C   0  0  0  0  0  0  0  0  0  0  0  0
  -25.2307    0.5437   12.5299 C   0  0  0  0  0  0  0  0  0  0  0  0
  -24.7709    3.7476   12.3845 H   0  0  0  0  0  0  0  0  0  0  0  0
  -27.0687    1.3198   12.7015 H   0  0  0  0  0  0  0  0  0  0  0  0
  1  7  1  0  0  0
  1  8  1  0  0  0
  2  9  1  0  0  0
  3 11  1  0  0  0
  4 10  2  0  0  0
  5 13  1  0  0  0
 18 23  1  0  0  0
 19 25  1  0  0  0
  6  7  1  0  0  0
  6 10  1  0  0  0
  6 11  2  0  0  0
  7 12  2  0  0  0
  8 20  1  0  0  0
  8  9  2  0  0  0
 20 21  2  0  0  0
 20 22  1  0  0  0
  9 10  1  0  0  0
 11 14  1  0  0  0
 12 13  1  0  0  0
 13 14  2  0  0  0
 21 23  1  0  0  0
 22 24  2  0  0  0
 23 25  2  0  0  0
 24 25  1  0  0  0
  2 15  1  0  0  0
  3 16  1  0  0  0
  5 17  1  0  0  0
 18 26  1  0  0  0
 19 27  1  0  0  0
M  END
> <PUBCHEM_COMPOUND_CID>
5280343

> <PUBCHEM_CONFORMER_RMSD>
0.6

> <PUBCHEM_CONFORMER_DIVERSEORDER>
2
3
4
1

> <PUBCHEM_MMFF94_PARTIAL_CHARGES>
32
1 -0.16
10 0.05
11 0.03
12 0.09
13 0.47
14 0.08
15 -0.15
16 0.08
17 -0.15
18 -0.15
19 -0.15
2 -0.53
20 0.08
21 -0.15
22 0.08
23 0.15
24 0.15
25 0.15
26 0.15
27 0.15
28 0.45
29 0.45
3 -0.53
30 0.45
31 0.45
32 0.45
4 -0.57
5 -0.53
6 -0.53
7 -0.53
8 0.09
9 0.08

> <PUBCHEM_EFFECTIVE_ROTOR_COUNT>
1

> <PUBCHEM_PHARMACOPHORE_FEATURES>
10
1 1 acceptor
1 2 donor
1 3 donor
1 4 acceptor
1 5 donor
1 6 donor
1 7 donor
6 1 8 9 10 12 13 rings
6 11 17 19 20 21 22 rings
6 8 9 14 15 16 18 rings

> <PUBCHEM_HEAVY_ATOM_COUNT>
22

> <PUBCHEM_ATOM_DEF_STEREO_COUNT>
0

> <PUBCHEM_ATOM_UDEF_STEREO_COUNT>
0

> <PUBCHEM_BOND_DEF_STEREO_COUNT>
0

> <PUBCHEM_BOND_UDEF_STEREO_COUNT>
0

> <PUBCHEM_ISOTOPIC_ATOM_COUNT>
0

> <PUBCHEM_COMPONENT_COUNT>
1

> <PUBCHEM_CACTVS_TAUTO_COUNT>
435

> <PUBCHEM_CONFORMER_ID>
0050925700000002

> <PUBCHEM_MMFF94_ENERGY>
67.9013

> <PUBCHEM_FEATURE_SELFOVERLAP>
50.781

> <PUBCHEM_SHAPE_FINGERPRINT>
10062212 137 18187366532376097179
10319926 262 18198887155530876618
10411042 1 18267306624464364199
10616163 171 18411422791027885687
11045977 3 17988636389587437640
11046707 91 18409731781088721831
11132069 177 18342179934140791333
11370993 144 16773248296511877579
11552529 35 14260485002790182821
12107183 9 17540809500193799274
12236239 1 17821733810620706086
12363563 72 18339368581624426103
12553582 1 18408889555155666595
13140716 1 18340771541661452937
13288520 33 18411422821308590263
13675066 3 17775002409702089546
14386348 63 17846783983788497886
15042514 8 18410580587265310395
15099037 37 18343299271068437565
15196674 1 18411421755945834109
16752209 62 18334289868595986291
16945 1 18411422778686062261
17349148 13 17748826302436736570
17804303 29 18413671322582201833
1813 80 17458069226905034038
18186145 218 12612750207294412564
18222031 100 18270959167125326031
18681886 176 18336270124256880678
19141452 34 17775287205258622471
200 152 16660645137605500828
20028762 73 17986393510885979071
21033648 29 17131540674461138658
21065201 7 18342460283973285510
21267235 1 18337399322303363739
21728266 224 18261944198090091298
2297311 6 18342468031962295414
23366157 5 17970912403723827780
23402539 116 18410573976646049422
23557571 272 18129948871279935700
23559900 14 18200040530026961414
25147074 1 18264788703960466501
2838139 119 14691740792871930569
3004659 81 18186521037688015310
312423 11 18190191263647082733
335352 9 18410856577895734581
474 4 17096946861146042884
5104073 3 18340771541286848633
573450 72 18260825981905919954
59755656 215 18268151959405414926
602551 16 18413105061377832954
67856867 119 18188777270541336308
7495541 125 18131914871464346032
77492 1 17676776383674054532
7970288 3 18338799051639604983
9709674 26 18121220046008890539

> <PUBCHEM_SHAPE_MULTIPOLES>
411.66
10.99
2.34
1.06
6.01
0.56
0.11
-4.89
0.67
-3.56
0.02
1.76
-0.17
-0.17

> <PUBCHEM_SHAPE_SELFOVERLAP>
923.873

> <PUBCHEM_SHAPE_VOLUME>
216

> <PUBCHEM_COORDINATE_TYPE>
2
5
10

> <minimizedAffinity>
-6.22330

> <CNNscore>
0.4286922812

> <CNNaffinity>
4.8263831139

> <CNN_VS>
2.0690331459

> <CNNaffinity_variance>
0.1161762625

$$$$
5280343


 27 29  0  0  0  0  0  0  0  0999 V2000
  -22.0792   -3.0400   11.9325 O   0  0  0  0  0  0  0  0  0  0  0  0
  -20.6224    0.3331   11.6357 O   0  0  0  0  0  0  0  0  0  0  0  0
  -17.4747   -3.7124   10.5781 O   0  0  0  0  0  0  0  0  0  0  0  0
  -18.5064   -1.3401   10.9581 O   0  0  0  0  0  0  0  0  0  0  0  0
  -20.3562   -7.4171   11.2972 O   0  0  0  0  0  0  0  0  0  0  0  0
  -19.7650   -3.3125   11.2530 C   0  0  0  0  0  0  0  0  0  0  0  0
  -21.0110   -3.8314   11.5976 C   0  0  0  0  0  0  0  0  0  0  0  0
  -21.9138   -1.6641   11.9158 C   0  0  0  0  0  0  0  0  0  0  0  0
  -20.7626   -1.0378   11.6108 C   0  0  0  0  0  0  0  0  0  0  0  0
  -19.5791   -1.8534   11.2466 C   0  0  0  0  0  0  0  0  0  0  0  0
  -18.7113   -4.1682   10.9215 C   0  0  0  0  0  0  0  0  0  0  0  0
  -21.2120   -5.2119   11.6135 C   0  0  0  0  0  0  0  0  0  0  0  0
  -20.1627   -6.0697   11.2828 C   0  0  0  0  0  0  0  0  0  0  0  0
  -18.9150   -5.5485   10.9374 C   0  0  0  0  0  0  0  0  0  0  0  0
  -21.3527    0.8747   11.8621 H   0  0  0  0  0  0  0  0  0  0  0  0
  -17.3040   -2.7913   10.5574 H   0  0  0  0  0  0  0  0  0  0  0  0
  -21.1936   -7.7677   11.5290 H   0  0  0  0  0  0  0  0  0  0  0  0
  -26.2869   -1.5416   14.0472 O   0  0  0  0  0  0  0  0  0  0  0  0
  -26.5744    1.1361   13.3620 O   0  0  0  0  0  0  0  0  0  0  0  0
  -23.1361   -0.9336   12.2956 C   0  0  0  0  0  0  0  0  0  0  0  0
  -24.1482   -1.5856   13.0004 C   0  0  0  0  0  0  0  0  0  0  0  0
  -23.2815    0.4103   11.9505 C   0  0  0  0  0  0  0  0  0  0  0  0
  -25.3050   -0.8940   13.3603 C   0  0  0  0  0  0  0  0  0  0  0  0
  -24.4385    1.1017   12.3101 C   0  0  0  0  0  0  0  0  0  0  0  0
  -25.4501    0.4496   13.0152 C   0  0  0  0  0  0  0  0  0  0  0  0
  -26.1819   -2.4443   14.2754 H   0  0  0  0  0  0  0  0  0  0  0  0
  -27.2588    0.7056   13.8357 H   0  0  0  0  0  0  0  0  0  0  0  0
  1  7  1  0  0  0
  1  8  1  0  0  0
  2  9  1  0  0  0
  3 11  1  0  0  0
  4 10  2  0  0  0
  5 13  1  0  0  0
 18 23  1  0  0  0
 19 25  1  0  0  0
  6  7  1  0  0  0
  6 10  1  0  0  0
  6 11  2  0  0  0
  7 12  2  0  0  0
  8 20  1  0  0  0
  8  9  2  0  0  0
 20 21  2  0  0  0
 20 22  1  0  0  0
  9 10  1  0  0  0
 11 14  1  0  0  0
 12 13  1  0  0  0
 13 14  2  0  0  0
 21 23  1  0  0  0
 22 24  2  0  0  0
 23 25  2  0  0  0
 24 25  1  0  0  0
  2 15  1  0  0  0
  3 16  1  0  0  0
  5 17  1  0  0  0
 18 26  1  0  0  0
 19 27  1  0  0  0
M  END
> <PUBCHEM_COMPOUND_CID>
5280343

> <PUBCHEM_CONFORMER_RMSD>
0.6

> <PUBCHEM_CONFORMER_DIVERSEORDER>
2
3
4
1

> <PUBCHEM_MMFF94_PARTIAL_CHARGES>
32
1 -0.16
10 0.05
11 0.03
12 0.09
13 0.47
14 0.08
15 -0.15
16 0.08
17 -0.15
18 -0.15
19 -0.15
2 -0.53
20 0.08
21 -0.15
22 0.08
23 0.15
24 0.15
25 0.15
26 0.15
27 0.15
28 0.45
29 0.45
3 -0.53
30 0.45
31 0.45
32 0.45
4 -0.57
5 -0.53
6 -0.53
7 -0.53
8 0.09
9 0.08

> <PUBCHEM_EFFECTIVE_ROTOR_COUNT>
1

> <PUBCHEM_PHARMACOPHORE_FEATURES>
10
1 1 acceptor
1 2 donor
1 3 donor
1 4 acceptor
1 5 donor
1 6 donor
1 7 donor
6 1 8 9 10 12 13 rings
6 11 17 19 20 21 22 rings
6 8 9 14 15 16 18 rings

> <PUBCHEM_HEAVY_ATOM_COUNT>
22

> <PUBCHEM_ATOM_DEF_STEREO_COUNT>
0

> <PUBCHEM_ATOM_UDEF_STEREO_COUNT>
0

> <PUBCHEM_BOND_DEF_STEREO_COUNT>
0

> <PUBCHEM_BOND_UDEF_STEREO_COUNT>
0

> <PUBCHEM_ISOTOPIC_ATOM_COUNT>
0

> <PUBCHEM_COMPONENT_COUNT>
1

> <PUBCHEM_CACTVS_TAUTO_COUNT>
435

> <PUBCHEM_CONFORMER_ID>
0050925700000002

> <PUBCHEM_MMFF94_ENERGY>
67.9013

> <PUBCHEM_FEATURE_SELFOVERLAP>
50.781

> <PUBCHEM_SHAPE_FINGERPRINT>
10062212 137 18187366532376097179
10319926 262 18198887155530876618
10411042 1 18267306624464364199
10616163 171 18411422791027885687
11045977 3 17988636389587437640
11046707 91 18409731781088721831
11132069 177 18342179934140791333
11370993 144 16773248296511877579
11552529 35 14260485002790182821
12107183 9 17540809500193799274
12236239 1 17821733810620706086
12363563 72 18339368581624426103
12553582 1 18408889555155666595
13140716 1 18340771541661452937
13288520 33 18411422821308590263
13675066 3 17775002409702089546
14386348 63 17846783983788497886
15042514 8 18410580587265310395
15099037 37 18343299271068437565
15196674 1 18411421755945834109
16752209 62 18334289868595986291
16945 1 18411422778686062261
17349148 13 17748826302436736570
17804303 29 18413671322582201833
1813 80 17458069226905034038
18186145 218 12612750207294412564
18222031 100 18270959167125326031
18681886 176 18336270124256880678
19141452 34 17775287205258622471
200 152 16660645137605500828
20028762 73 17986393510885979071
21033648 29 17131540674461138658
21065201 7 18342460283973285510
21267235 1 18337399322303363739
21728266 224 18261944198090091298
2297311 6 18342468031962295414
23366157 5 17970912403723827780
23402539 116 18410573976646049422
23557571 272 18129948871279935700
23559900 14 18200040530026961414
25147074 1 18264788703960466501
2838139 119 14691740792871930569
3004659 81 18186521037688015310
312423 11 18190191263647082733
335352 9 18410856577895734581
474 4 17096946861146042884
5104073 3 18340771541286848633
573450 72 18260825981905919954
59755656 215 18268151959405414926
602551 16 18413105061377832954
67856867 119 18188777270541336308
7495541 125 18131914871464346032
77492 1 17676776383674054532
7970288 3 18338799051639604983
9709674 26 18121220046008890539

> <PUBCHEM_SHAPE_MULTIPOLES>
411.66
10.99
2.34
1.06
6.01
0.56
0.11
-4.89
0.67
-3.56
0.02
1.76
-0.17
-0.17

> <PUBCHEM_SHAPE_SELFOVERLAP>
923.873

> <PUBCHEM_SHAPE_VOLUME>
216

> <PUBCHEM_COORDINATE_TYPE>
2
5
10

> <minimizedAffinity>
-4.20425

> <CNNscore>
0.4124199152

> <CNNaffinity>
4.5053825378

> <CNN_VS>
1.8581094742

> <CNNaffinity_variance>
0.0840496272

$$$$
5280343


 27 29  0  0  0  0  0  0  0  0999 V2000
  -21.1200   -2.8322   13.9886 O   0  0  0  0  0  0  0  0  0  0  0  0
  -18.2254   -0.9326   12.7232 O   0  0  0  0  0  0  0  0  0  0  0  0
  -20.7342   -3.9947    9.2994 O   0  0  0  0  0  0  0  0  0  0  0  0
  -19.1056   -2.3261   10.4827 O   0  0  0  0  0  0  0  0  0  0  0  0
  -24.1526   -5.8913   11.9944 O   0  0  0  0  0  0  0  0  0  0  0  0
  -20.8761   -3.3744   11.6352 C   0  0  0  0  0  0  0  0  0  0  0  0
  -21.5203   -3.5055   12.8634 C   0  0  0  0  0  0  0  0  0  0  0  0
  -20.0343   -1.9757   13.8956 C   0  0  0  0  0  0  0  0  0  0  0  0
  -19.3212   -1.7669   12.7738 C   0  0  0  0  0  0  0  0  0  0  0  0
  -19.7149   -2.4773   11.5332 C   0  0  0  0  0  0  0  0  0  0  0  0
  -21.3282   -4.0869   10.5216 C   0  0  0  0  0  0  0  0  0  0  0  0
  -22.6225   -4.3519   12.9866 C   0  0  0  0  0  0  0  0  0  0  0  0
  -23.0772   -5.0649   11.8770 C   0  0  0  0  0  0  0  0  0  0  0  0
  -22.4312   -4.9323   10.6472 C   0  0  0  0  0  0  0  0  0  0  0  0
  -17.9526   -0.4703   13.4912 H   0  0  0  0  0  0  0  0  0  0  0  0
  -19.9914   -3.4362    9.1805 H   0  0  0  0  0  0  0  0  0  0  0  0
  -24.5868   -5.9807   12.8199 H   0  0  0  0  0  0  0  0  0  0  0  0
  -18.8867   -2.2266   18.6181 O   0  0  0  0  0  0  0  0  0  0  0  0
  -18.7949    0.5466   18.7696 O   0  0  0  0  0  0  0  0  0  0  0  0
  -19.7099   -1.3181   15.1739 C   0  0  0  0  0  0  0  0  0  0  0  0
  -19.4474   -2.0874   16.3077 C   0  0  0  0  0  0  0  0  0  0  0  0
  -19.6651    0.0742   15.2508 C   0  0  0  0  0  0  0  0  0  0  0  0
  -19.1399   -1.4650   17.5176 C   0  0  0  0  0  0  0  0  0  0  0  0
  -19.3580    0.6966   16.4608 C   0  0  0  0  0  0  0  0  0  0  0  0
  -19.0952   -0.0730   17.5942 C   0  0  0  0  0  0  0  0  0  0  0  0
  -18.9187   -3.1612   18.5586 H   0  0  0  0  0  0  0  0  0  0  0  0
  -18.6170    0.0372   19.5356 H   0  0  0  0  0  0  0  0  0  0  0  0
  1  7  1  0  0  0
  1  8  1  0  0  0
  2  9  1  0  0  0
  3 11  1  0  0  0
  4 10  2  0  0  0
  5 13  1  0  0  0
 18 23  1  0  0  0
 19 25  1  0  0  0
  6  7  1  0  0  0
  6 10  1  0  0  0
  6 11  2  0  0  0
  7 12  2  0  0  0
  8 20  1  0  0  0
  8  9  2  0  0  0
 20 21  2  0  0  0
 20 22  1  0  0  0
  9 10  1  0  0  0
 11 14  1  0  0  0
 12 13  1  0  0  0
 13 14  2  0  0  0
 21 23  1  0  0  0
 22 24  2  0  0  0
 23 25  2  0  0  0
 24 25  1  0  0  0
  2 15  1  0  0  0
  3 16  1  0  0  0
  5 17  1  0  0  0
 18 26  1  0  0  0
 19 27  1  0  0  0
M  END
> <PUBCHEM_COMPOUND_CID>
5280343

> <PUBCHEM_CONFORMER_RMSD>
0.6

> <PUBCHEM_CONFORMER_DIVERSEORDER>
2
3
4
1

> <PUBCHEM_MMFF94_PARTIAL_CHARGES>
32
1 -0.16
10 0.05
11 0.03
12 0.09
13 0.47
14 0.08
15 -0.15
16 0.08
17 -0.15
18 -0.15
19 -0.15
2 -0.53
20 0.08
21 -0.15
22 0.08
23 0.15
24 0.15
25 0.15
26 0.15
27 0.15
28 0.45
29 0.45
3 -0.53
30 0.45
31 0.45
32 0.45
4 -0.57
5 -0.53
6 -0.53
7 -0.53
8 0.09
9 0.08

> <PUBCHEM_EFFECTIVE_ROTOR_COUNT>
1

> <PUBCHEM_PHARMACOPHORE_FEATURES>
10
1 1 acceptor
1 2 donor
1 3 donor
1 4 acceptor
1 5 donor
1 6 donor
1 7 donor
6 1 8 9 10 12 13 rings
6 11 17 19 20 21 22 rings
6 8 9 14 15 16 18 rings

> <PUBCHEM_HEAVY_ATOM_COUNT>
22

> <PUBCHEM_ATOM_DEF_STEREO_COUNT>
0

> <PUBCHEM_ATOM_UDEF_STEREO_COUNT>
0

> <PUBCHEM_BOND_DEF_STEREO_COUNT>
0

> <PUBCHEM_BOND_UDEF_STEREO_COUNT>
0

> <PUBCHEM_ISOTOPIC_ATOM_COUNT>
0

> <PUBCHEM_COMPONENT_COUNT>
1

> <PUBCHEM_CACTVS_TAUTO_COUNT>
435

> <PUBCHEM_CONFORMER_ID>
0050925700000002

> <PUBCHEM_MMFF94_ENERGY>
67.9013

> <PUBCHEM_FEATURE_SELFOVERLAP>
50.781

> <PUBCHEM_SHAPE_FINGERPRINT>
10062212 137 18187366532376097179
10319926 262 18198887155530876618
10411042 1 18267306624464364199
10616163 171 18411422791027885687
11045977 3 17988636389587437640
11046707 91 18409731781088721831
11132069 177 18342179934140791333
11370993 144 16773248296511877579
11552529 35 14260485002790182821
12107183 9 17540809500193799274
12236239 1 17821733810620706086
12363563 72 18339368581624426103
12553582 1 18408889555155666595
13140716 1 18340771541661452937
13288520 33 18411422821308590263
13675066 3 17775002409702089546
14386348 63 17846783983788497886
15042514 8 18410580587265310395
15099037 37 18343299271068437565
15196674 1 18411421755945834109
16752209 62 18334289868595986291
16945 1 18411422778686062261
17349148 13 17748826302436736570
17804303 29 18413671322582201833
1813 80 17458069226905034038
18186145 218 12612750207294412564
18222031 100 18270959167125326031
18681886 176 18336270124256880678
19141452 34 17775287205258622471
200 152 16660645137605500828
20028762 73 17986393510885979071
21033648 29 17131540674461138658
21065201 7 18342460283973285510
21267235 1 18337399322303363739
21728266 224 18261944198090091298
2297311 6 18342468031962295414
23366157 5 17970912403723827780
23402539 116 18410573976646049422
23557571 272 18129948871279935700
23559900 14 18200040530026961414
25147074 1 18264788703960466501
2838139 119 14691740792871930569
3004659 81 18186521037688015310
312423 11 18190191263647082733
335352 9 18410856577895734581
474 4 17096946861146042884
5104073 3 18340771541286848633
573450 72 18260825981905919954
59755656 215 18268151959405414926
602551 16 18413105061377832954
67856867 119 18188777270541336308
7495541 125 18131914871464346032
77492 1 17676776383674054532
7970288 3 18338799051639604983
9709674 26 18121220046008890539

> <PUBCHEM_SHAPE_MULTIPOLES>
411.66
10.99
2.34
1.06
6.01
0.56
0.11
-4.89
0.67
-3.56
0.02
1.76
-0.17
-0.17

> <PUBCHEM_SHAPE_SELFOVERLAP>
923.873

> <PUBCHEM_SHAPE_VOLUME>
216

> <PUBCHEM_COORDINATE_TYPE>
2
5
10

> <minimizedAffinity>
-5.05078

> <CNNscore>
0.4088778198

> <CNNaffinity>
5.0419301987

> <CNN_VS>
2.0615334511

> <CNNaffinity_variance>
0.2848923802

$$$$
5280343


 27 29  0  0  0  0  0  0  0  0999 V2000
  -23.2981   -5.6123    9.5502 O   0  0  0  0  0  0  0  0  0  0  0  0
  -24.3745   -2.2465    8.5009 O   0  0  0  0  0  0  0  0  0  0  0  0
  -25.6896   -6.2381    5.3816 O   0  0  0  0  0  0  0  0  0  0  0  0
  -25.3567   -3.8906    6.4839 O   0  0  0  0  0  0  0  0  0  0  0  0
  -23.8031   -9.9433    7.6744 O   0  0  0  0  0  0  0  0  0  0  0  0
  -24.5070   -5.8620    7.4603 C   0  0  0  0  0  0  0  0  0  0  0  0
  -23.7938   -6.3887    8.5347 C   0  0  0  0  0  0  0  0  0  0  0  0
  -23.5275   -4.2460    9.5105 C   0  0  0  0  0  0  0  0  0  0  0  0
  -24.1920   -3.6124    8.5270 C   0  0  0  0  0  0  0  0  0  0  0  0
  -24.7422   -4.4110    7.4053 C   0  0  0  0  0  0  0  0  0  0  0  0
  -24.9877   -6.7021    6.4526 C   0  0  0  0  0  0  0  0  0  0  0  0
  -23.5555   -7.7613    8.6086 C   0  0  0  0  0  0  0  0  0  0  0  0
  -24.0340   -8.6035    7.6047 C   0  0  0  0  0  0  0  0  0  0  0  0
  -24.7487   -8.0747    6.5291 C   0  0  0  0  0  0  0  0  0  0  0  0
  -24.0381   -1.7156    9.1958 H   0  0  0  0  0  0  0  0  0  0  0  0
  -25.8677   -5.3219    5.2995 H   0  0  0  0  0  0  0  0  0  0  0  0
  -23.3233  -10.2991    8.3964 H   0  0  0  0  0  0  0  0  0  0  0  0
  -23.9298   -1.0772   13.1819 O   0  0  0  0  0  0  0  0  0  0  0  0
  -21.2811   -1.5252   13.8928 O   0  0  0  0  0  0  0  0  0  0  0  0
  -22.9419   -3.5313   10.6585 C   0  0  0  0  0  0  0  0  0  0  0  0
  -23.7174   -2.6310   11.3896 C   0  0  0  0  0  0  0  0  0  0  0  0
  -21.6118   -3.7548   11.0149 C   0  0  0  0  0  0  0  0  0  0  0  0
  -23.1633   -1.9548   12.4765 C   0  0  0  0  0  0  0  0  0  0  0  0
  -21.0575   -3.0783   12.1017 C   0  0  0  0  0  0  0  0  0  0  0  0
  -21.8333   -2.1784   12.8326 C   0  0  0  0  0  0  0  0  0  0  0  0
  -24.8225   -0.9325   12.9364 H   0  0  0  0  0  0  0  0  0  0  0  0
  -21.7952   -0.9191   14.3891 H   0  0  0  0  0  0  0  0  0  0  0  0
  1  7  1  0  0  0
  1  8  1  0  0  0
  2  9  1  0  0  0
  3 11  1  0  0  0
  4 10  2  0  0  0
  5 13  1  0  0  0
 18 23  1  0  0  0
 19 25  1  0  0  0
  6  7  1  0  0  0
  6 10  1  0  0  0
  6 11  2  0  0  0
  7 12  2  0  0  0
  8 20  1  0  0  0
  8  9  2  0  0  0
 20 21  2  0  0  0
 20 22  1  0  0  0
  9 10  1  0  0  0
 11 14  1  0  0  0
 12 13  1  0  0  0
 13 14  2  0  0  0
 21 23  1  0  0  0
 22 24  2  0  0  0
 23 25  2  0  0  0
 24 25  1  0  0  0
  2 15  1  0  0  0
  3 16  1  0  0  0
  5 17  1  0  0  0
 18 26  1  0  0  0
 19 27  1  0  0  0
M  END
> <PUBCHEM_COMPOUND_CID>
5280343

> <PUBCHEM_CONFORMER_RMSD>
0.6

> <PUBCHEM_CONFORMER_DIVERSEORDER>
2
3
4
1

> <PUBCHEM_MMFF94_PARTIAL_CHARGES>
32
1 -0.16
10 0.05
11 0.03
12 0.09
13 0.47
14 0.08
15 -0.15
16 0.08
17 -0.15
18 -0.15
19 -0.15
2 -0.53
20 0.08
21 -0.15
22 0.08
23 0.15
24 0.15
25 0.15
26 0.15
27 0.15
28 0.45
29 0.45
3 -0.53
30 0.45
31 0.45
32 0.45
4 -0.57
5 -0.53
6 -0.53
7 -0.53
8 0.09
9 0.08

> <PUBCHEM_EFFECTIVE_ROTOR_COUNT>
1

> <PUBCHEM_PHARMACOPHORE_FEATURES>
10
1 1 acceptor
1 2 donor
1 3 donor
1 4 acceptor
1 5 donor
1 6 donor
1 7 donor
6 1 8 9 10 12 13 rings
6 11 17 19 20 21 22 rings
6 8 9 14 15 16 18 rings

> <PUBCHEM_HEAVY_ATOM_COUNT>
22

> <PUBCHEM_ATOM_DEF_STEREO_COUNT>
0

> <PUBCHEM_ATOM_UDEF_STEREO_COUNT>
0

> <PUBCHEM_BOND_DEF_STEREO_COUNT>
0

> <PUBCHEM_BOND_UDEF_STEREO_COUNT>
0

> <PUBCHEM_ISOTOPIC_ATOM_COUNT>
0

> <PUBCHEM_COMPONENT_COUNT>
1

> <PUBCHEM_CACTVS_TAUTO_COUNT>
435

> <PUBCHEM_CONFORMER_ID>
0050925700000002

> <PUBCHEM_MMFF94_ENERGY>
67.9013

> <PUBCHEM_FEATURE_SELFOVERLAP>
50.781

> <PUBCHEM_SHAPE_FINGERPRINT>
10062212 137 18187366532376097179
10319926 262 18198887155530876618
10411042 1 18267306624464364199
10616163 171 18411422791027885687
11045977 3 17988636389587437640
11046707 91 18409731781088721831
11132069 177 18342179934140791333
11370993 144 16773248296511877579
11552529 35 14260485002790182821
12107183 9 17540809500193799274
12236239 1 17821733810620706086
12363563 72 18339368581624426103
12553582 1 18408889555155666595
13140716 1 18340771541661452937
13288520 33 18411422821308590263
13675066 3 17775002409702089546
14386348 63 17846783983788497886
15042514 8 18410580587265310395
15099037 37 18343299271068437565
15196674 1 18411421755945834109
16752209 62 18334289868595986291
16945 1 18411422778686062261
17349148 13 17748826302436736570
17804303 29 18413671322582201833
1813 80 17458069226905034038
18186145 218 12612750207294412564
18222031 100 18270959167125326031
18681886 176 18336270124256880678
19141452 34 17775287205258622471
200 152 16660645137605500828
20028762 73 17986393510885979071
21033648 29 17131540674461138658
21065201 7 18342460283973285510
21267235 1 18337399322303363739
21728266 224 18261944198090091298
2297311 6 18342468031962295414
23366157 5 17970912403723827780
23402539 116 18410573976646049422
23557571 272 18129948871279935700
23559900 14 18200040530026961414
25147074 1 18264788703960466501
2838139 119 14691740792871930569
3004659 81 18186521037688015310
312423 11 18190191263647082733
335352 9 18410856577895734581
474 4 17096946861146042884
5104073 3 18340771541286848633
573450 72 18260825981905919954
59755656 215 18268151959405414926
602551 16 18413105061377832954
67856867 119 18188777270541336308
7495541 125 18131914871464346032
77492 1 17676776383674054532
7970288 3 18338799051639604983
9709674 26 18121220046008890539

> <PUBCHEM_SHAPE_MULTIPOLES>
411.66
10.99
2.34
1.06
6.01
0.56
0.11
-4.89
0.67
-3.56
0.02
1.76
-0.17
-0.17

> <PUBCHEM_SHAPE_SELFOVERLAP>
923.873

> <PUBCHEM_SHAPE_VOLUME>
216

> <PUBCHEM_COORDINATE_TYPE>
2
5
10

> <minimizedAffinity>
-4.69770

> <CNNscore>
0.3682753146

> <CNNaffinity>
4.5936708450

> <CNN_VS>
1.6917356253

> <CNNaffinity_variance>
0.4257012010

$$$$
5280343


 27 29  0  0  0  0  0  0  0  0999 V2000
  -21.9777   -0.9639   12.3931 O   0  0  0  0  0  0  0  0  0  0  0  0
  -24.7205    1.3623   11.5842 O   0  0  0  0  0  0  0  0  0  0  0  0
  -19.9480    3.4311   12.1638 O   0  0  0  0  0  0  0  0  0  0  0  0
  -22.4986    3.0267   11.7542 O   0  0  0  0  0  0  0  0  0  0  0  0
  -17.3303   -0.3987   13.1764 O   0  0  0  0  0  0  0  0  0  0  0  0
  -21.0190    1.2623   12.2633 C   0  0  0  0  0  0  0  0  0  0  0  0
  -20.9077   -0.1104   12.4729 C   0  0  0  0  0  0  0  0  0  0  0  0
  -23.2210   -0.4381   12.0789 C   0  0  0  0  0  0  0  0  0  0  0  0
  -23.4647    0.8673   11.8626 C   0  0  0  0  0  0  0  0  0  0  0  0
  -22.3383    1.8283   11.9428 C   0  0  0  0  0  0  0  0  0  0  0  0
  -19.8932    2.0843   12.3589 C   0  0  0  0  0  0  0  0  0  0  0  0
  -19.6679   -0.6713   12.7805 C   0  0  0  0  0  0  0  0  0  0  0  0
  -18.5414    0.1460   12.8766 C   0  0  0  0  0  0  0  0  0  0  0  0
  -18.6542    1.5209   12.6660 C   0  0  0  0  0  0  0  0  0  0  0  0
  -25.4518    0.7793   11.5272 H   0  0  0  0  0  0  0  0  0  0  0  0
  -20.7643    3.8416   11.9560 H   0  0  0  0  0  0  0  0  0  0  0  0
  -17.2539   -1.3218   13.3179 H   0  0  0  0  0  0  0  0  0  0  0  0
  -25.4370   -4.1313    9.8134 O   0  0  0  0  0  0  0  0  0  0  0  0
  -27.2704   -4.3396   11.8911 O   0  0  0  0  0  0  0  0  0  0  0  0
  -24.2809   -1.4607   12.0264 C   0  0  0  0  0  0  0  0  0  0  0  0
  -24.3631   -2.3254   10.9346 C   0  0  0  0  0  0  0  0  0  0  0  0
  -25.2025   -1.5647   13.0686 C   0  0  0  0  0  0  0  0  0  0  0  0
  -25.3660   -3.2936   10.8851 C   0  0  0  0  0  0  0  0  0  0  0  0
  -26.2056   -2.5328   13.0189 C   0  0  0  0  0  0  0  0  0  0  0  0
  -26.2873   -3.3973   11.9272 C   0  0  0  0  0  0  0  0  0  0  0  0
  -24.8144   -4.0553    9.1173 H   0  0  0  0  0  0  0  0  0  0  0  0
  -27.3324   -4.9243   11.1616 H   0  0  0  0  0  0  0  0  0  0  0  0
  1  7  1  0  0  0
  1  8  1  0  0  0
  2  9  1  0  0  0
  3 11  1  0  0  0
  4 10  2  0  0  0
  5 13  1  0  0  0
 18 23  1  0  0  0
 19 25  1  0  0  0
  6  7  1  0  0  0
  6 10  1  0  0  0
  6 11  2  0  0  0
  7 12  2  0  0  0
  8 20  1  0  0  0
  8  9  2  0  0  0
 20 21  2  0  0  0
 20 22  1  0  0  0
  9 10  1  0  0  0
 11 14  1  0  0  0
 12 13  1  0  0  0
 13 14  2  0  0  0
 21 23  1  0  0  0
 22 24  2  0  0  0
 23 25  2  0  0  0
 24 25  1  0  0  0
  2 15  1  0  0  0
  3 16  1  0  0  0
  5 17  1  0  0  0
 18 26  1  0  0  0
 19 27  1  0  0  0
M  END
> <PUBCHEM_COMPOUND_CID>
5280343

> <PUBCHEM_CONFORMER_RMSD>
0.6

> <PUBCHEM_CONFORMER_DIVERSEORDER>
2
3
4
1

> <PUBCHEM_MMFF94_PARTIAL_CHARGES>
32
1 -0.16
10 0.05
11 0.03
12 0.09
13 0.47
14 0.08
15 -0.15
16 0.08
17 -0.15
18 -0.15
19 -0.15
2 -0.53
20 0.08
21 -0.15
22 0.08
23 0.15
24 0.15
25 0.15
26 0.15
27 0.15
28 0.45
29 0.45
3 -0.53
30 0.45
31 0.45
32 0.45
4 -0.57
5 -0.53
6 -0.53
7 -0.53
8 0.09
9 0.08

> <PUBCHEM_EFFECTIVE_ROTOR_COUNT>
1

> <PUBCHEM_PHARMACOPHORE_FEATURES>
10
1 1 acceptor
1 2 donor
1 3 donor
1 4 acceptor
1 5 donor
1 6 donor
1 7 donor
6 1 8 9 10 12 13 rings
6 11 17 19 20 21 22 rings
6 8 9 14 15 16 18 rings

> <PUBCHEM_HEAVY_ATOM_COUNT>
22

> <PUBCHEM_ATOM_DEF_STEREO_COUNT>
0

> <PUBCHEM_ATOM_UDEF_STEREO_COUNT>
0

> <PUBCHEM_BOND_DEF_STEREO_COUNT>
0

> <PUBCHEM_BOND_UDEF_STEREO_COUNT>
0

> <PUBCHEM_ISOTOPIC_ATOM_COUNT>
0

> <PUBCHEM_COMPONENT_COUNT>
1

> <PUBCHEM_CACTVS_TAUTO_COUNT>
435

> <PUBCHEM_CONFORMER_ID>
0050925700000002

> <PUBCHEM_MMFF94_ENERGY>
67.9013

> <PUBCHEM_FEATURE_SELFOVERLAP>
50.781

> <PUBCHEM_SHAPE_FINGERPRINT>
10062212 137 18187366532376097179
10319926 262 18198887155530876618
10411042 1 18267306624464364199
10616163 171 18411422791027885687
11045977 3 17988636389587437640
11046707 91 18409731781088721831
11132069 177 18342179934140791333
11370993 144 16773248296511877579
11552529 35 14260485002790182821
12107183 9 17540809500193799274
12236239 1 17821733810620706086
12363563 72 18339368581624426103
12553582 1 18408889555155666595
13140716 1 18340771541661452937
13288520 33 18411422821308590263
13675066 3 17775002409702089546
14386348 63 17846783983788497886
15042514 8 18410580587265310395
15099037 37 18343299271068437565
15196674 1 18411421755945834109
16752209 62 18334289868595986291
16945 1 18411422778686062261
17349148 13 17748826302436736570
17804303 29 18413671322582201833
1813 80 17458069226905034038
18186145 218 12612750207294412564
18222031 100 18270959167125326031
18681886 176 18336270124256880678
19141452 34 17775287205258622471
200 152 16660645137605500828
20028762 73 17986393510885979071
21033648 29 17131540674461138658
21065201 7 18342460283973285510
21267235 1 18337399322303363739
21728266 224 18261944198090091298
2297311 6 18342468031962295414
23366157 5 17970912403723827780
23402539 116 18410573976646049422
23557571 272 18129948871279935700
23559900 14 18200040530026961414
25147074 1 18264788703960466501
2838139 119 14691740792871930569
3004659 81 18186521037688015310
312423 11 18190191263647082733
335352 9 18410856577895734581
474 4 17096946861146042884
5104073 3 18340771541286848633
573450 72 18260825981905919954
59755656 215 18268151959405414926
602551 16 18413105061377832954
67856867 119 18188777270541336308
7495541 125 18131914871464346032
77492 1 17676776383674054532
7970288 3 18338799051639604983
9709674 26 18121220046008890539

> <PUBCHEM_SHAPE_MULTIPOLES>
411.66
10.99
2.34
1.06
6.01
0.56
0.11
-4.89
0.67
-3.56
0.02
1.76
-0.17
-0.17

> <PUBCHEM_SHAPE_SELFOVERLAP>
923.873

> <PUBCHEM_SHAPE_VOLUME>
216

> <PUBCHEM_COORDINATE_TYPE>
2
5
10

> <minimizedAffinity>
-5.00328

> <CNNscore>
0.3651039600

> <CNNaffinity>
4.4658756256

> <CNN_VS>
1.6305088997

> <CNNaffinity_variance>
0.2604574561

$$$$
