5280863


 25 27  0  0  0  0  0  0  0  0999 V2000
  -23.2988   -3.2644   11.6230 O   0  0  0  0  0  0  0  0  0  0  0  0
  -21.3415   -0.7546   13.4827 O   0  0  0  0  0  0  0  0  0  0  0  0
  -18.8550   -5.1427   12.0847 O   0  0  0  0  0  0  0  0  0  0  0  0
  -19.5065   -2.7971   13.0390 O   0  0  0  0  0  0  0  0  0  0  0  0
  -22.2819   -7.5454    9.8425 O   0  0  0  0  0  0  0  0  0  0  0  0
  -21.0546   -4.1514   11.8854 C   0  0  0  0  0  0  0  0  0  0  0  0
  -22.3669   -4.2509   11.4284 C   0  0  0  0  0  0  0  0  0  0  0  0
  -22.9138   -2.1140   12.2932 C   0  0  0  0  0  0  0  0  0  0  0  0
  -20.6435   -2.9387   12.6092 C   0  0  0  0  0  0  0  0  0  0  0  0
  -21.6830   -1.8972   12.7917 C   0  0  0  0  0  0  0  0  0  0  0  0
  -20.1478   -5.1900   11.6589 C   0  0  0  0  0  0  0  0  0  0  0  0
  -22.7819   -5.3920   10.7413 C   0  0  0  0  0  0  0  0  0  0  0  0
  -21.8796   -6.4310   10.5130 C   0  0  0  0  0  0  0  0  0  0  0  0
  -20.5652   -6.3300   10.9709 C   0  0  0  0  0  0  0  0  0  0  0  0
  -21.9773   -0.0789   13.6139 H   0  0  0  0  0  0  0  0  0  0  0  0
  -18.5420   -4.3918   12.5497 H   0  0  0  0  0  0  0  0  0  0  0  0
  -23.1643   -7.6140    9.5347 H   0  0  0  0  0  0  0  0  0  0  0  0
  -27.0905    1.6144   12.8340 O   0  0  0  0  0  0  0  0  0  0  0  0
  -24.0085   -1.1375   12.4343 C   0  0  0  0  0  0  0  0  0  0  0  0
  -25.0874   -1.4152   13.2741 C   0  0  0  0  0  0  0  0  0  0  0  0
  -23.9659    0.0653   11.7289 C   0  0  0  0  0  0  0  0  0  0  0  0
  -26.1232   -0.4906   13.4083 C   0  0  0  0  0  0  0  0  0  0  0  0
  -25.0016    0.9900   11.8633 C   0  0  0  0  0  0  0  0  0  0  0  0
  -26.0803    0.7119   12.7029 C   0  0  0  0  0  0  0  0  0  0  0  0
  -27.8152    1.4277   13.3979 H   0  0  0  0  0  0  0  0  0  0  0  0
  1  7  1  0  0  0
  1  8  1  0  0  0
  2 10  1  0  0  0
  3 11  1  0  0  0
  4  9  2  0  0  0
  5 13  1  0  0  0
 18 24  1  0  0  0
  6  7  1  0  0  0
  6  9  1  0  0  0
  6 11  2  0  0  0
  7 12  2  0  0  0
  8 10  2  0  0  0
  8 19  1  0  0  0
  9 10  1  0  0  0
 19 20  1  0  0  0
 19 21  2  0  0  0
 11 14  1  0  0  0
 12 13  1  0  0  0
 13 14  2  0  0  0
 20 22  2  0  0  0
 21 23  1  0  0  0
 22 24  1  0  0  0
 23 24  2  0  0  0
  2 15  1  0  0  0
  3 16  1  0  0  0
  5 17  1  0  0  0
 18 25  1  0  0  0
M  END
> <PUBCHEM_COMPOUND_CID>
5280863

> <PUBCHEM_CONFORMER_RMSD>
0.6

> <PUBCHEM_CONFORMER_DIVERSEORDER>
1

> <PUBCHEM_MMFF94_PARTIAL_CHARGES>
31
1 -0.16
10 0.47
11 0.09
12 0.03
13 0.08
14 -0.15
15 0.08
16 -0.15
17 -0.15
18 -0.15
19 -0.15
2 -0.53
20 -0.15
21 0.08
22 0.15
23 0.15
24 0.15
25 0.15
26 0.15
27 0.15
28 0.45
29 0.45
3 -0.53
30 0.45
31 0.45
4 -0.57
5 -0.53
6 -0.53
7 0.09
8 0.08
9 0.05

> <PUBCHEM_EFFECTIVE_ROTOR_COUNT>
1

> <PUBCHEM_PHARMACOPHORE_FEATURES>
9
1 1 acceptor
1 2 donor
1 3 donor
1 4 acceptor
1 5 donor
1 6 donor
6 1 7 8 9 10 11 rings
6 12 17 18 19 20 21 rings
6 7 8 13 14 15 16 rings

> <PUBCHEM_HEAVY_ATOM_COUNT>
21

> <PUBCHEM_ATOM_DEF_STEREO_COUNT>
0

> <PUBCHEM_ATOM_UDEF_STEREO_COUNT>
0

> <PUBCHEM_BOND_DEF_STEREO_COUNT>
0

> <PUBCHEM_BOND_UDEF_STEREO_COUNT>
0

> <PUBCHEM_ISOTOPIC_ATOM_COUNT>
0

> <PUBCHEM_COMPONENT_COUNT>
1

> <PUBCHEM_CACTVS_TAUTO_COUNT>
126

> <PUBCHEM_CONFORMER_ID>
0050945F00000001

> <PUBCHEM_MMFF94_ENERGY>
63.6634

> <PUBCHEM_FEATURE_SELFOVERLAP>
45.701

> <PUBCHEM_SHAPE_FINGERPRINT>
10062212 137 18259704501815817475
10319926 262 18198039440708472114
10411042 1 18266459996136868551
10493431 412 18054800477274442545
10616163 171 18411139112664406262
11046707 91 18409730677123910171
11370993 144 16916517955761329203
11543360 7 15719391793172269227
12107183 9 17541371342140675274
12236239 1 17749392534061481470
12363563 72 18339086002704009255
12553582 1 18335417984827221099
13140716 1 18340488962783208193
13288520 33 18410856568303811111
13675066 3 17917989503163926634
13862211 1 18411135875018635839
14386348 63 17917994953962754494
14790565 3 17907586822313171969
15042514 8 18410016533441990531
15196674 1 18410575127634143204
15536298 74 18268991053969707425
16752209 62 18261663818488179675
16945 1 18410573947008695237
17492 89 17979916334999118719
17804303 29 18413387644160661329
18222031 100 18270674402272329287
19141452 34 17846780749752405951
200 152 16588024589466838308
20028762 73 17985829461378751375
21033648 29 17203314598809963442
21065201 7 18341611465349671010
21267235 1 18408891762974708547
221490 88 18191593162225813571
2297311 6 18341902883091139510
23366157 5 17970347246368186860
23402539 116 18409726249144594518
23557571 272 18201721691948635868
23559900 14 18271250400689538198
25147074 1 18264787600074730613
2748010 2 18267295620510030677
3004659 81 18113614624936730478
312423 11 18190190164135409397
335352 9 18410291424544975637
4214541 1 18410855451569901696
474 4 17024325213363864316
5104073 3 18342177807789199753
559249 180 18261388901826549970
573450 72 18260823774456318682
59755656 215 18267868281237107870
602551 16 18412822482673668010
67856867 119 18260834856110609924
7364860 26 18054791946941650728
7495541 125 18130786776881943360
77492 1 17676211226149614980
7970288 3 18338515373228633302
8863177 126 17536044590725800739
9709674 26 18120654892652843899

> <PUBCHEM_SHAPE_MULTIPOLES>
396.95
10.55
2.4
0.89
7.48
0.59
0
-4.96
0.01
-3.3
-0.01
1.05
-0.1
0.01

> <PUBCHEM_SHAPE_SELFOVERLAP>
889.871

> <PUBCHEM_SHAPE_VOLUME>
208.9

> <PUBCHEM_COORDINATE_TYPE>
2
5
10

> <minimizedAffinity>
-6.10064

> <CNNscore>
0.6921607256

> <CNNaffinity>
4.6211853027

> <CNN_VS>
3.1986029148

> <CNNaffinity_variance>
0.0326849110

$$$$
5280863


 25 27  0  0  0  0  0  0  0  0999 V2000
  -20.2907   -1.7713   11.8557 O   0  0  0  0  0  0  0  0  0  0  0  0
  -19.0603   -4.8867   10.3167 O   0  0  0  0  0  0  0  0  0  0  0  0
  -15.8266   -0.7719   10.2554 O   0  0  0  0  0  0  0  0  0  0  0  0
  -16.9365   -3.1231    9.9778 O   0  0  0  0  0  0  0  0  0  0  0  0
  -18.4251    2.5557   12.4279 O   0  0  0  0  0  0  0  0  0  0  0  0
  -18.0496   -1.3319   11.0334 C   0  0  0  0  0  0  0  0  0  0  0  0
  -19.2245   -0.9309   11.6656 C   0  0  0  0  0  0  0  0  0  0  0  0
  -20.1893   -3.0796   11.4096 C   0  0  0  0  0  0  0  0  0  0  0  0
  -17.9409   -2.7153   10.5456 C   0  0  0  0  0  0  0  0  0  0  0  0
  -19.1163   -3.5891   10.7774 C   0  0  0  0  0  0  0  0  0  0  0  0
  -16.9951   -0.4307   10.8663 C   0  0  0  0  0  0  0  0  0  0  0  0
  -19.3530    0.3766   12.1351 C   0  0  0  0  0  0  0  0  0  0  0  0
  -18.3024    1.2794   11.9704 C   0  0  0  0  0  0  0  0  0  0  0  0
  -17.1259    0.8763   11.3373 C   0  0  0  0  0  0  0  0  0  0  0  0
  -19.7878   -5.4625   10.4484 H   0  0  0  0  0  0  0  0  0  0  0  0
  -15.7058   -1.6413    9.9276 H   0  0  0  0  0  0  0  0  0  0  0  0
  -19.2147    2.8271   12.8531 H   0  0  0  0  0  0  0  0  0  0  0  0
  -24.8183   -6.1103   12.4222 O   0  0  0  0  0  0  0  0  0  0  0  0
  -21.4023   -3.8732   11.6755 C   0  0  0  0  0  0  0  0  0  0  0  0
  -22.6232   -3.4889   11.1206 C   0  0  0  0  0  0  0  0  0  0  0  0
  -21.3299   -5.0096   12.4815 C   0  0  0  0  0  0  0  0  0  0  0  0
  -23.7712   -4.2404   11.3717 C   0  0  0  0  0  0  0  0  0  0  0  0
  -22.4778   -5.7613   12.7323 C   0  0  0  0  0  0  0  0  0  0  0  0
  -23.6985   -5.3765   12.1776 C   0  0  0  0  0  0  0  0  0  0  0  0
  -25.6383   -5.8520   12.0497 H   0  0  0  0  0  0  0  0  0  0  0  0
  1  7  1  0  0  0
  1  8  1  0  0  0
  2 10  1  0  0  0
  3 11  1  0  0  0
  4  9  2  0  0  0
  5 13  1  0  0  0
 18 24  1  0  0  0
  6  7  1  0  0  0
  6  9  1  0  0  0
  6 11  2  0  0  0
  7 12  2  0  0  0
  8 10  2  0  0  0
  8 19  1  0  0  0
  9 10  1  0  0  0
 19 20  1  0  0  0
 19 21  2  0  0  0
 11 14  1  0  0  0
 12 13  1  0  0  0
 13 14  2  0  0  0
 20 22  2  0  0  0
 21 23  1  0  0  0
 22 24  1  0  0  0
 23 24  2  0  0  0
  2 15  1  0  0  0
  3 16  1  0  0  0
  5 17  1  0  0  0
 18 25  1  0  0  0
M  END
> <PUBCHEM_COMPOUND_CID>
5280863

> <PUBCHEM_CONFORMER_RMSD>
0.6

> <PUBCHEM_CONFORMER_DIVERSEORDER>
1

> <PUBCHEM_MMFF94_PARTIAL_CHARGES>
31
1 -0.16
10 0.47
11 0.09
12 0.03
13 0.08
14 -0.15
15 0.08
16 -0.15
17 -0.15
18 -0.15
19 -0.15
2 -0.53
20 -0.15
21 0.08
22 0.15
23 0.15
24 0.15
25 0.15
26 0.15
27 0.15
28 0.45
29 0.45
3 -0.53
30 0.45
31 0.45
4 -0.57
5 -0.53
6 -0.53
7 0.09
8 0.08
9 0.05

> <PUBCHEM_EFFECTIVE_ROTOR_COUNT>
1

> <PUBCHEM_PHARMACOPHORE_FEATURES>
9
1 1 acceptor
1 2 donor
1 3 donor
1 4 acceptor
1 5 donor
1 6 donor
6 1 7 8 9 10 11 rings
6 12 17 18 19 20 21 rings
6 7 8 13 14 15 16 rings

> <PUBCHEM_HEAVY_ATOM_COUNT>
21

> <PUBCHEM_ATOM_DEF_STEREO_COUNT>
0

> <PUBCHEM_ATOM_UDEF_STEREO_COUNT>
0

> <PUBCHEM_BOND_DEF_STEREO_COUNT>
0

> <PUBCHEM_BOND_UDEF_STEREO_COUNT>
0

> <PUBCHEM_ISOTOPIC_ATOM_COUNT>
0

> <PUBCHEM_COMPONENT_COUNT>
1

> <PUBCHEM_CACTVS_TAUTO_COUNT>
126

> <PUBCHEM_CONFORMER_ID>
0050945F00000001

> <PUBCHEM_MMFF94_ENERGY>
63.6634

> <PUBCHEM_FEATURE_SELFOVERLAP>
45.701

> <PUBCHEM_SHAPE_FINGERPRINT>
10062212 137 18259704501815817475
10319926 262 18198039440708472114
10411042 1 18266459996136868551
10493431 412 18054800477274442545
10616163 171 18411139112664406262
11046707 91 18409730677123910171
11370993 144 16916517955761329203
11543360 7 15719391793172269227
12107183 9 17541371342140675274
12236239 1 17749392534061481470
12363563 72 18339086002704009255
12553582 1 18335417984827221099
13140716 1 18340488962783208193
13288520 33 18410856568303811111
13675066 3 17917989503163926634
13862211 1 18411135875018635839
14386348 63 17917994953962754494
14790565 3 17907586822313171969
15042514 8 18410016533441990531
15196674 1 18410575127634143204
15536298 74 18268991053969707425
16752209 62 18261663818488179675
16945 1 18410573947008695237
17492 89 17979916334999118719
17804303 29 18413387644160661329
18222031 100 18270674402272329287
19141452 34 17846780749752405951
200 152 16588024589466838308
20028762 73 17985829461378751375
21033648 29 17203314598809963442
21065201 7 18341611465349671010
21267235 1 18408891762974708547
221490 88 18191593162225813571
2297311 6 18341902883091139510
23366157 5 17970347246368186860
23402539 116 18409726249144594518
23557571 272 18201721691948635868
23559900 14 18271250400689538198
25147074 1 18264787600074730613
2748010 2 18267295620510030677
3004659 81 18113614624936730478
312423 11 18190190164135409397
335352 9 18410291424544975637
4214541 1 18410855451569901696
474 4 17024325213363864316
5104073 3 18342177807789199753
559249 180 18261388901826549970
573450 72 18260823774456318682
59755656 215 18267868281237107870
602551 16 18412822482673668010
67856867 119 18260834856110609924
7364860 26 18054791946941650728
7495541 125 18130786776881943360
77492 1 17676211226149614980
7970288 3 18338515373228633302
8863177 126 17536044590725800739
9709674 26 18120654892652843899

> <PUBCHEM_SHAPE_MULTIPOLES>
396.95
10.55
2.4
0.89
7.48
0.59
0
-4.96
0.01
-3.3
-0.01
1.05
-0.1
0.01

> <PUBCHEM_SHAPE_SELFOVERLAP>
889.871

> <PUBCHEM_SHAPE_VOLUME>
208.9

> <PUBCHEM_COORDINATE_TYPE>
2
5
10

> <minimizedAffinity>
-6.70825

> <CNNscore>
0.6671520472

> <CNNaffinity>
5.0647459030

> <CNN_VS>
3.3789556026

> <CNNaffinity_variance>
0.3151665330

$$$$
5280863


 25 27  0  0  0  0  0  0  0  0999 V2000
  -18.1294    0.0344   13.4373 O   0  0  0  0  0  0  0  0  0  0  0  0
  -20.7061    2.4562   14.4784 O   0  0  0  0  0  0  0  0  0  0  0  0
  -18.4304    3.2622    9.8347 O   0  0  0  0  0  0  0  0  0  0  0  0
  -19.9039    3.4051   11.9900 O   0  0  0  0  0  0  0  0  0  0  0  0
  -15.3713   -0.3611    9.5945 O   0  0  0  0  0  0  0  0  0  0  0  0
  -18.3268    1.6819   11.6657 C   0  0  0  0  0  0  0  0  0  0  0  0
  -17.7577    0.5359   12.2167 C   0  0  0  0  0  0  0  0  0  0  0  0
  -19.1226    0.6905   14.1472 C   0  0  0  0  0  0  0  0  0  0  0  0
  -19.3719    2.3905   12.4202 C   0  0  0  0  0  0  0  0  0  0  0  0
  -19.7446    1.8093   13.7325 C   0  0  0  0  0  0  0  0  0  0  0  0
  -17.9071    2.1478   10.4171 C   0  0  0  0  0  0  0  0  0  0  0  0
  -16.7631   -0.1526   11.5218 C   0  0  0  0  0  0  0  0  0  0  0  0
  -16.3414    0.3091   10.2748 C   0  0  0  0  0  0  0  0  0  0  0  0
  -16.9125    1.4570    9.7237 C   0  0  0  0  0  0  0  0  0  0  0  0
  -20.9623    2.1127   15.3116 H   0  0  0  0  0  0  0  0  0  0  0  0
  -19.0999    3.7496   10.2732 H   0  0  0  0  0  0  0  0  0  0  0  0
  -14.9873   -1.1319    9.9638 H   0  0  0  0  0  0  0  0  0  0  0  0
  -20.2728   -1.7577   19.0789 O   0  0  0  0  0  0  0  0  0  0  0  0
  -19.4248    0.0492   15.4392 C   0  0  0  0  0  0  0  0  0  0  0  0
  -19.7609   -1.3040   15.4849 C   0  0  0  0  0  0  0  0  0  0  0  0
  -19.3738    0.7949   16.6171 C   0  0  0  0  0  0  0  0  0  0  0  0
  -20.0462   -1.9112   16.7079 C   0  0  0  0  0  0  0  0  0  0  0  0
  -19.6587    0.1876   17.8402 C   0  0  0  0  0  0  0  0  0  0  0  0
  -19.9951   -1.1654   17.8854 C   0  0  0  0  0  0  0  0  0  0  0  0
  -20.4988   -2.6665   19.1095 H   0  0  0  0  0  0  0  0  0  0  0  0
  1  7  1  0  0  0
  1  8  1  0  0  0
  2 10  1  0  0  0
  3 11  1  0  0  0
  4  9  2  0  0  0
  5 13  1  0  0  0
 18 24  1  0  0  0
  6  7  1  0  0  0
  6  9  1  0  0  0
  6 11  2  0  0  0
  7 12  2  0  0  0
  8 10  2  0  0  0
  8 19  1  0  0  0
  9 10  1  0  0  0
 19 20  1  0  0  0
 19 21  2  0  0  0
 11 14  1  0  0  0
 12 13  1  0  0  0
 13 14  2  0  0  0
 20 22  2  0  0  0
 21 23  1  0  0  0
 22 24  1  0  0  0
 23 24  2  0  0  0
  2 15  1  0  0  0
  3 16  1  0  0  0
  5 17  1  0  0  0
 18 25  1  0  0  0
M  END
> <PUBCHEM_COMPOUND_CID>
5280863

> <PUBCHEM_CONFORMER_RMSD>
0.6

> <PUBCHEM_CONFORMER_DIVERSEORDER>
1

> <PUBCHEM_MMFF94_PARTIAL_CHARGES>
31
1 -0.16
10 0.47
11 0.09
12 0.03
13 0.08
14 -0.15
15 0.08
16 -0.15
17 -0.15
18 -0.15
19 -0.15
2 -0.53
20 -0.15
21 0.08
22 0.15
23 0.15
24 0.15
25 0.15
26 0.15
27 0.15
28 0.45
29 0.45
3 -0.53
30 0.45
31 0.45
4 -0.57
5 -0.53
6 -0.53
7 0.09
8 0.08
9 0.05

> <PUBCHEM_EFFECTIVE_ROTOR_COUNT>
1

> <PUBCHEM_PHARMACOPHORE_FEATURES>
9
1 1 acceptor
1 2 donor
1 3 donor
1 4 acceptor
1 5 donor
1 6 donor
6 1 7 8 9 10 11 rings
6 12 17 18 19 20 21 rings
6 7 8 13 14 15 16 rings

> <PUBCHEM_HEAVY_ATOM_COUNT>
21

> <PUBCHEM_ATOM_DEF_STEREO_COUNT>
0

> <PUBCHEM_ATOM_UDEF_STEREO_COUNT>
0

> <PUBCHEM_BOND_DEF_STEREO_COUNT>
0

> <PUBCHEM_BOND_UDEF_STEREO_COUNT>
0

> <PUBCHEM_ISOTOPIC_ATOM_COUNT>
0

> <PUBCHEM_COMPONENT_COUNT>
1

> <PUBCHEM_CACTVS_TAUTO_COUNT>
126

> <PUBCHEM_CONFORMER_ID>
0050945F00000001

> <PUBCHEM_MMFF94_ENERGY>
63.6634

> <PUBCHEM_FEATURE_SELFOVERLAP>
45.701

> <PUBCHEM_SHAPE_FINGERPRINT>
10062212 137 18259704501815817475
10319926 262 18198039440708472114
10411042 1 18266459996136868551
10493431 412 18054800477274442545
10616163 171 18411139112664406262
11046707 91 18409730677123910171
11370993 144 16916517955761329203
11543360 7 15719391793172269227
12107183 9 17541371342140675274
12236239 1 17749392534061481470
12363563 72 18339086002704009255
12553582 1 18335417984827221099
13140716 1 18340488962783208193
13288520 33 18410856568303811111
13675066 3 17917989503163926634
13862211 1 18411135875018635839
14386348 63 17917994953962754494
14790565 3 17907586822313171969
15042514 8 18410016533441990531
15196674 1 18410575127634143204
15536298 74 18268991053969707425
16752209 62 18261663818488179675
16945 1 18410573947008695237
17492 89 17979916334999118719
17804303 29 18413387644160661329
18222031 100 18270674402272329287
19141452 34 17846780749752405951
200 152 16588024589466838308
20028762 73 17985829461378751375
21033648 29 17203314598809963442
21065201 7 18341611465349671010
21267235 1 18408891762974708547
221490 88 18191593162225813571
2297311 6 18341902883091139510
23366157 5 17970347246368186860
23402539 116 18409726249144594518
23557571 272 18201721691948635868
23559900 14 18271250400689538198
25147074 1 18264787600074730613
2748010 2 18267295620510030677
3004659 81 18113614624936730478
312423 11 18190190164135409397
335352 9 18410291424544975637
4214541 1 18410855451569901696
474 4 17024325213363864316
5104073 3 18342177807789199753
559249 180 18261388901826549970
573450 72 18260823774456318682
59755656 215 18267868281237107870
602551 16 18412822482673668010
67856867 119 18260834856110609924
7364860 26 18054791946941650728
7495541 125 18130786776881943360
77492 1 17676211226149614980
7970288 3 18338515373228633302
8863177 126 17536044590725800739
9709674 26 18120654892652843899

> <PUBCHEM_SHAPE_MULTIPOLES>
396.95
10.55
2.4
0.89
7.48
0.59
0
-4.96
0.01
-3.3
-0.01
1.05
-0.1
0.01

> <PUBCHEM_SHAPE_SELFOVERLAP>
889.871

> <PUBCHEM_SHAPE_VOLUME>
208.9

> <PUBCHEM_COORDINATE_TYPE>
2
5
10

> <minimizedAffinity>
-9.12672

> <CNNscore>
0.6254222393

> <CNNaffinity>
5.3560757637

> <CNN_VS>
3.3498089314

> <CNNaffinity_variance>
0.1638471931

$$$$
5280863


 25 27  0  0  0  0  0  0  0  0999 V2000
  -24.6503   -2.8320    9.7169 O   0  0  0  0  0  0  0  0  0  0  0  0
  -22.0955   -3.7703   12.2031 O   0  0  0  0  0  0  0  0  0  0  0  0
  -24.4911    0.8330   12.8840 O   0  0  0  0  0  0  0  0  0  0  0  0
  -22.9783   -1.2890   13.0975 O   0  0  0  0  0  0  0  0  0  0  0  0
  -27.4569    0.9579    9.1783 O   0  0  0  0  0  0  0  0  0  0  0  0
  -24.5254   -1.0285   11.3367 C   0  0  0  0  0  0  0  0  0  0  0  0
  -25.0555   -1.6096   10.1868 C   0  0  0  0  0  0  0  0  0  0  0  0
  -23.6796   -3.5237   10.4242 C   0  0  0  0  0  0  0  0  0  0  0  0
  -23.4851   -1.7515   12.0842 C   0  0  0  0  0  0  0  0  0  0  0  0
  -23.0820   -3.0713   11.5416 C   0  0  0  0  0  0  0  0  0  0  0  0
  -24.9764    0.2216   11.7679 C   0  0  0  0  0  0  0  0  0  0  0  0
  -26.0415   -0.9428    9.4591 C   0  0  0  0  0  0  0  0  0  0  0  0
  -26.4946    0.3054    9.8864 C   0  0  0  0  0  0  0  0  0  0  0  0
  -25.9631    0.8862   11.0386 C   0  0  0  0  0  0  0  0  0  0  0  0
  -21.8198   -4.6069   11.8839 H   0  0  0  0  0  0  0  0  0  0  0  0
  -23.8280    0.4143   13.3968 H   0  0  0  0  0  0  0  0  0  0  0  0
  -27.8144    0.5686    8.4045 H   0  0  0  0  0  0  0  0  0  0  0  0
  -22.3674   -8.4700    8.0895 O   0  0  0  0  0  0  0  0  0  0  0  0
  -23.3364   -4.8196    9.8119 C   0  0  0  0  0  0  0  0  0  0  0  0
  -22.5035   -4.8643    8.6937 C   0  0  0  0  0  0  0  0  0  0  0  0
  -23.8436   -6.0021   10.3510 C   0  0  0  0  0  0  0  0  0  0  0  0
  -22.1780   -6.0910    8.1147 C   0  0  0  0  0  0  0  0  0  0  0  0
  -23.5179   -7.2287    9.7722 C   0  0  0  0  0  0  0  0  0  0  0  0
  -22.6853   -7.2731    8.6539 C   0  0  0  0  0  0  0  0  0  0  0  0
  -21.8082   -8.5000    7.3383 H   0  0  0  0  0  0  0  0  0  0  0  0
  1  7  1  0  0  0
  1  8  1  0  0  0
  2 10  1  0  0  0
  3 11  1  0  0  0
  4  9  2  0  0  0
  5 13  1  0  0  0
 18 24  1  0  0  0
  6  7  1  0  0  0
  6  9  1  0  0  0
  6 11  2  0  0  0
  7 12  2  0  0  0
  8 10  2  0  0  0
  8 19  1  0  0  0
  9 10  1  0  0  0
 19 20  1  0  0  0
 19 21  2  0  0  0
 11 14  1  0  0  0
 12 13  1  0  0  0
 13 14  2  0  0  0
 20 22  2  0  0  0
 21 23  1  0  0  0
 22 24  1  0  0  0
 23 24  2  0  0  0
  2 15  1  0  0  0
  3 16  1  0  0  0
  5 17  1  0  0  0
 18 25  1  0  0  0
M  END
> <PUBCHEM_COMPOUND_CID>
5280863

> <PUBCHEM_CONFORMER_RMSD>
0.6

> <PUBCHEM_CONFORMER_DIVERSEORDER>
1

> <PUBCHEM_MMFF94_PARTIAL_CHARGES>
31
1 -0.16
10 0.47
11 0.09
12 0.03
13 0.08
14 -0.15
15 0.08
16 -0.15
17 -0.15
18 -0.15
19 -0.15
2 -0.53
20 -0.15
21 0.08
22 0.15
23 0.15
24 0.15
25 0.15
26 0.15
27 0.15
28 0.45
29 0.45
3 -0.53
30 0.45
31 0.45
4 -0.57
5 -0.53
6 -0.53
7 0.09
8 0.08
9 0.05

> <PUBCHEM_EFFECTIVE_ROTOR_COUNT>
1

> <PUBCHEM_PHARMACOPHORE_FEATURES>
9
1 1 acceptor
1 2 donor
1 3 donor
1 4 acceptor
1 5 donor
1 6 donor
6 1 7 8 9 10 11 rings
6 12 17 18 19 20 21 rings
6 7 8 13 14 15 16 rings

> <PUBCHEM_HEAVY_ATOM_COUNT>
21

> <PUBCHEM_ATOM_DEF_STEREO_COUNT>
0

> <PUBCHEM_ATOM_UDEF_STEREO_COUNT>
0

> <PUBCHEM_BOND_DEF_STEREO_COUNT>
0

> <PUBCHEM_BOND_UDEF_STEREO_COUNT>
0

> <PUBCHEM_ISOTOPIC_ATOM_COUNT>
0

> <PUBCHEM_COMPONENT_COUNT>
1

> <PUBCHEM_CACTVS_TAUTO_COUNT>
126

> <PUBCHEM_CONFORMER_ID>
0050945F00000001

> <PUBCHEM_MMFF94_ENERGY>
63.6634

> <PUBCHEM_FEATURE_SELFOVERLAP>
45.701

> <PUBCHEM_SHAPE_FINGERPRINT>
10062212 137 18259704501815817475
10319926 262 18198039440708472114
10411042 1 18266459996136868551
10493431 412 18054800477274442545
10616163 171 18411139112664406262
11046707 91 18409730677123910171
11370993 144 16916517955761329203
11543360 7 15719391793172269227
12107183 9 17541371342140675274
12236239 1 17749392534061481470
12363563 72 18339086002704009255
12553582 1 18335417984827221099
13140716 1 18340488962783208193
13288520 33 18410856568303811111
13675066 3 17917989503163926634
13862211 1 18411135875018635839
14386348 63 17917994953962754494
14790565 3 17907586822313171969
15042514 8 18410016533441990531
15196674 1 18410575127634143204
15536298 74 18268991053969707425
16752209 62 18261663818488179675
16945 1 18410573947008695237
17492 89 17979916334999118719
17804303 29 18413387644160661329
18222031 100 18270674402272329287
19141452 34 17846780749752405951
200 152 16588024589466838308
20028762 73 17985829461378751375
21033648 29 17203314598809963442
21065201 7 18341611465349671010
21267235 1 18408891762974708547
221490 88 18191593162225813571
2297311 6 18341902883091139510
23366157 5 17970347246368186860
23402539 116 18409726249144594518
23557571 272 18201721691948635868
23559900 14 18271250400689538198
25147074 1 18264787600074730613
2748010 2 18267295620510030677
3004659 81 18113614624936730478
312423 11 18190190164135409397
335352 9 18410291424544975637
4214541 1 18410855451569901696
474 4 17024325213363864316
5104073 3 18342177807789199753
559249 180 18261388901826549970
573450 72 18260823774456318682
59755656 215 18267868281237107870
602551 16 18412822482673668010
67856867 119 18260834856110609924
7364860 26 18054791946941650728
7495541 125 18130786776881943360
77492 1 17676211226149614980
7970288 3 18338515373228633302
8863177 126 17536044590725800739
9709674 26 18120654892652843899

> <PUBCHEM_SHAPE_MULTIPOLES>
396.95
10.55
2.4
0.89
7.48
0.59
0
-4.96
0.01
-3.3
-0.01
1.05
-0.1
0.01

> <PUBCHEM_SHAPE_SELFOVERLAP>
889.871

> <PUBCHEM_SHAPE_VOLUME>
208.9

> <PUBCHEM_COORDINATE_TYPE>
2
5
10

> <minimizedAffinity>
-4.80452

> <CNNscore>
0.5290859938

> <CNNaffinity>
4.3831200600

> <CNN_VS>
2.3190474510

> <CNNaffinity_variance>
0.1295158118

$$$$
5280863


 25 27  0  0  0  0  0  0  0  0999 V2000
  -19.3017    0.4831   13.9675 O   0  0  0  0  0  0  0  0  0  0  0  0
  -19.2120   -3.1849   13.6126 O   0  0  0  0  0  0  0  0  0  0  0  0
  -18.4364   -0.3617    9.2743 O   0  0  0  0  0  0  0  0  0  0  0  0
  -18.7394   -2.2797   11.0255 O   0  0  0  0  0  0  0  0  0  0  0  0
  -18.7888    4.0805   10.9135 O   0  0  0  0  0  0  0  0  0  0  0  0
  -18.8690   -0.0036   11.6292 C   0  0  0  0  0  0  0  0  0  0  0  0
  -19.0708    0.8899   12.6788 C   0  0  0  0  0  0  0  0  0  0  0  0
  -19.3232   -0.8760   14.2382 C   0  0  0  0  0  0  0  0  0  0  0  0
  -18.9041   -1.4476   11.9075 C   0  0  0  0  0  0  0  0  0  0  0  0
  -19.1520   -1.8404   13.3156 C   0  0  0  0  0  0  0  0  0  0  0  0
  -18.6390    0.4689   10.3346 C   0  0  0  0  0  0  0  0  0  0  0  0
  -19.0447    2.2642   12.4401 C   0  0  0  0  0  0  0  0  0  0  0  0
  -18.8152    2.7399   11.1491 C   0  0  0  0  0  0  0  0  0  0  0  0
  -18.6128    1.8439   10.0986 C   0  0  0  0  0  0  0  0  0  0  0  0
  -19.3673   -3.4637   14.4936 H   0  0  0  0  0  0  0  0  0  0  0  0
  -18.4476   -1.2905    9.3979 H   0  0  0  0  0  0  0  0  0  0  0  0
  -18.9247    4.6828   11.6184 H   0  0  0  0  0  0  0  0  0  0  0  0
  -20.3075   -2.0211   19.6565 O   0  0  0  0  0  0  0  0  0  0  0  0
  -19.5811   -1.1753   15.6580 C   0  0  0  0  0  0  0  0  0  0  0  0
  -20.8918   -1.2297   16.1327 C   0  0  0  0  0  0  0  0  0  0  0  0
  -18.5147   -1.4051   16.5275 C   0  0  0  0  0  0  0  0  0  0  0  0
  -21.1359   -1.5137   17.4764 C   0  0  0  0  0  0  0  0  0  0  0  0
  -18.7589   -1.6894   17.8711 C   0  0  0  0  0  0  0  0  0  0  0  0
  -20.0696   -1.7434   18.3456 C   0  0  0  0  0  0  0  0  0  0  0  0
  -21.1878   -2.0575   19.9754 H   0  0  0  0  0  0  0  0  0  0  0  0
  1  7  1  0  0  0
  1  8  1  0  0  0
  2 10  1  0  0  0
  3 11  1  0  0  0
  4  9  2  0  0  0
  5 13  1  0  0  0
 18 24  1  0  0  0
  6  7  1  0  0  0
  6  9  1  0  0  0
  6 11  2  0  0  0
  7 12  2  0  0  0
  8 10  2  0  0  0
  8 19  1  0  0  0
  9 10  1  0  0  0
 19 20  1  0  0  0
 19 21  2  0  0  0
 11 14  1  0  0  0
 12 13  1  0  0  0
 13 14  2  0  0  0
 20 22  2  0  0  0
 21 23  1  0  0  0
 22 24  1  0  0  0
 23 24  2  0  0  0
  2 15  1  0  0  0
  3 16  1  0  0  0
  5 17  1  0  0  0
 18 25  1  0  0  0
M  END
> <PUBCHEM_COMPOUND_CID>
5280863

> <PUBCHEM_CONFORMER_RMSD>
0.6

> <PUBCHEM_CONFORMER_DIVERSEORDER>
1

> <PUBCHEM_MMFF94_PARTIAL_CHARGES>
31
1 -0.16
10 0.47
11 0.09
12 0.03
13 0.08
14 -0.15
15 0.08
16 -0.15
17 -0.15
18 -0.15
19 -0.15
2 -0.53
20 -0.15
21 0.08
22 0.15
23 0.15
24 0.15
25 0.15
26 0.15
27 0.15
28 0.45
29 0.45
3 -0.53
30 0.45
31 0.45
4 -0.57
5 -0.53
6 -0.53
7 0.09
8 0.08
9 0.05

> <PUBCHEM_EFFECTIVE_ROTOR_COUNT>
1

> <PUBCHEM_PHARMACOPHORE_FEATURES>
9
1 1 acceptor
1 2 donor
1 3 donor
1 4 acceptor
1 5 donor
1 6 donor
6 1 7 8 9 10 11 rings
6 12 17 18 19 20 21 rings
6 7 8 13 14 15 16 rings

> <PUBCHEM_HEAVY_ATOM_COUNT>
21

> <PUBCHEM_ATOM_DEF_STEREO_COUNT>
0

> <PUBCHEM_ATOM_UDEF_STEREO_COUNT>
0

> <PUBCHEM_BOND_DEF_STEREO_COUNT>
0

> <PUBCHEM_BOND_UDEF_STEREO_COUNT>
0

> <PUBCHEM_ISOTOPIC_ATOM_COUNT>
0

> <PUBCHEM_COMPONENT_COUNT>
1

> <PUBCHEM_CACTVS_TAUTO_COUNT>
126

> <PUBCHEM_CONFORMER_ID>
0050945F00000001

> <PUBCHEM_MMFF94_ENERGY>
63.6634

> <PUBCHEM_FEATURE_SELFOVERLAP>
45.701

> <PUBCHEM_SHAPE_FINGERPRINT>
10062212 137 18259704501815817475
10319926 262 18198039440708472114
10411042 1 18266459996136868551
10493431 412 18054800477274442545
10616163 171 18411139112664406262
11046707 91 18409730677123910171
11370993 144 16916517955761329203
11543360 7 15719391793172269227
12107183 9 17541371342140675274
12236239 1 17749392534061481470
12363563 72 18339086002704009255
12553582 1 18335417984827221099
13140716 1 18340488962783208193
13288520 33 18410856568303811111
13675066 3 17917989503163926634
13862211 1 18411135875018635839
14386348 63 17917994953962754494
14790565 3 17907586822313171969
15042514 8 18410016533441990531
15196674 1 18410575127634143204
15536298 74 18268991053969707425
16752209 62 18261663818488179675
16945 1 18410573947008695237
17492 89 17979916334999118719
17804303 29 18413387644160661329
18222031 100 18270674402272329287
19141452 34 17846780749752405951
200 152 16588024589466838308
20028762 73 17985829461378751375
21033648 29 17203314598809963442
21065201 7 18341611465349671010
21267235 1 18408891762974708547
221490 88 18191593162225813571
2297311 6 18341902883091139510
23366157 5 17970347246368186860
23402539 116 18409726249144594518
23557571 272 18201721691948635868
23559900 14 18271250400689538198
25147074 1 18264787600074730613
2748010 2 18267295620510030677
3004659 81 18113614624936730478
312423 11 18190190164135409397
335352 9 18410291424544975637
4214541 1 18410855451569901696
474 4 17024325213363864316
5104073 3 18342177807789199753
559249 180 18261388901826549970
573450 72 18260823774456318682
59755656 215 18267868281237107870
602551 16 18412822482673668010
67856867 119 18260834856110609924
7364860 26 18054791946941650728
7495541 125 18130786776881943360
77492 1 17676211226149614980
7970288 3 18338515373228633302
8863177 126 17536044590725800739
9709674 26 18120654892652843899

> <PUBCHEM_SHAPE_MULTIPOLES>
396.95
10.55
2.4
0.89
7.48
0.59
0
-4.96
0.01
-3.3
-0.01
1.05
-0.1
0.01

> <PUBCHEM_SHAPE_SELFOVERLAP>
889.871

> <PUBCHEM_SHAPE_VOLUME>
208.9

> <PUBCHEM_COORDINATE_TYPE>
2
5
10

> <minimizedAffinity>
-6.08066

> <CNNscore>
0.5144345760

> <CNNaffinity>
5.1642389297

> <CNN_VS>
2.6566631794

> <CNNaffinity_variance>
0.2147877216

$$$$
5280863


 25 27  0  0  0  0  0  0  0  0999 V2000
  -20.0445   -1.7958   11.8334 O   0  0  0  0  0  0  0  0  0  0  0  0
  -17.3410   -3.3157    9.8412 O   0  0  0  0  0  0  0  0  0  0  0  0
  -16.5730    1.5736   11.5435 O   0  0  0  0  0  0  0  0  0  0  0  0
  -16.3532   -0.7843   10.4348 O   0  0  0  0  0  0  0  0  0  0  0  0
  -20.6060    2.4436   13.8934 O   0  0  0  0  0  0  0  0  0  0  0  0
  -18.2697   -0.1497   11.6539 C   0  0  0  0  0  0  0  0  0  0  0  0
  -19.5252   -0.5556   12.1009 C   0  0  0  0  0  0  0  0  0  0  0  0
  -19.2813   -2.6874   11.0961 C   0  0  0  0  0  0  0  0  0  0  0  0
  -17.4604   -1.0865   10.8595 C   0  0  0  0  0  0  0  0  0  0  0  0
  -18.0604   -2.4173   10.5992 C   0  0  0  0  0  0  0  0  0  0  0  0
  -17.7920    1.1280   11.9563 C   0  0  0  0  0  0  0  0  0  0  0  0
  -20.3129    0.3154   12.8541 C   0  0  0  0  0  0  0  0  0  0  0  0
  -19.8395    1.5918   13.1583 C   0  0  0  0  0  0  0  0  0  0  0  0
  -18.5815    1.9971   12.7103 C   0  0  0  0  0  0  0  0  0  0  0  0
  -17.6943   -4.1645    9.6600 H   0  0  0  0  0  0  0  0  0  0  0  0
  -16.0176    1.0155   11.0355 H   0  0  0  0  0  0  0  0  0  0  0  0
  -21.4507    2.1722   14.1946 H   0  0  0  0  0  0  0  0  0  0  0  0
  -21.8536   -7.6210   10.2711 O   0  0  0  0  0  0  0  0  0  0  0  0
  -19.9557   -3.9799   10.8807 C   0  0  0  0  0  0  0  0  0  0  0  0
  -21.1665   -4.0285   10.1894 C   0  0  0  0  0  0  0  0  0  0  0  0
  -19.3831   -5.1553   11.3670 C   0  0  0  0  0  0  0  0  0  0  0  0
  -21.8045   -5.2521    9.9847 C   0  0  0  0  0  0  0  0  0  0  0  0
  -20.0209   -6.3788   11.1621 C   0  0  0  0  0  0  0  0  0  0  0  0
  -21.2317   -6.4271   10.4711 C   0  0  0  0  0  0  0  0  0  0  0  0
  -22.6670   -7.6536    9.8070 H   0  0  0  0  0  0  0  0  0  0  0  0
  1  7  1  0  0  0
  1  8  1  0  0  0
  2 10  1  0  0  0
  3 11  1  0  0  0
  4  9  2  0  0  0
  5 13  1  0  0  0
 18 24  1  0  0  0
  6  7  1  0  0  0
  6  9  1  0  0  0
  6 11  2  0  0  0
  7 12  2  0  0  0
  8 10  2  0  0  0
  8 19  1  0  0  0
  9 10  1  0  0  0
 19 20  1  0  0  0
 19 21  2  0  0  0
 11 14  1  0  0  0
 12 13  1  0  0  0
 13 14  2  0  0  0
 20 22  2  0  0  0
 21 23  1  0  0  0
 22 24  1  0  0  0
 23 24  2  0  0  0
  2 15  1  0  0  0
  3 16  1  0  0  0
  5 17  1  0  0  0
 18 25  1  0  0  0
M  END
> <PUBCHEM_COMPOUND_CID>
5280863

> <PUBCHEM_CONFORMER_RMSD>
0.6

> <PUBCHEM_CONFORMER_DIVERSEORDER>
1

> <PUBCHEM_MMFF94_PARTIAL_CHARGES>
31
1 -0.16
10 0.47
11 0.09
12 0.03
13 0.08
14 -0.15
15 0.08
16 -0.15
17 -0.15
18 -0.15
19 -0.15
2 -0.53
20 -0.15
21 0.08
22 0.15
23 0.15
24 0.15
25 0.15
26 0.15
27 0.15
28 0.45
29 0.45
3 -0.53
30 0.45
31 0.45
4 -0.57
5 -0.53
6 -0.53
7 0.09
8 0.08
9 0.05

> <PUBCHEM_EFFECTIVE_ROTOR_COUNT>
1

> <PUBCHEM_PHARMACOPHORE_FEATURES>
9
1 1 acceptor
1 2 donor
1 3 donor
1 4 acceptor
1 5 donor
1 6 donor
6 1 7 8 9 10 11 rings
6 12 17 18 19 20 21 rings
6 7 8 13 14 15 16 rings

> <PUBCHEM_HEAVY_ATOM_COUNT>
21

> <PUBCHEM_ATOM_DEF_STEREO_COUNT>
0

> <PUBCHEM_ATOM_UDEF_STEREO_COUNT>
0

> <PUBCHEM_BOND_DEF_STEREO_COUNT>
0

> <PUBCHEM_BOND_UDEF_STEREO_COUNT>
0

> <PUBCHEM_ISOTOPIC_ATOM_COUNT>
0

> <PUBCHEM_COMPONENT_COUNT>
1

> <PUBCHEM_CACTVS_TAUTO_COUNT>
126

> <PUBCHEM_CONFORMER_ID>
0050945F00000001

> <PUBCHEM_MMFF94_ENERGY>
63.6634

> <PUBCHEM_FEATURE_SELFOVERLAP>
45.701

> <PUBCHEM_SHAPE_FINGERPRINT>
10062212 137 18259704501815817475
10319926 262 18198039440708472114
10411042 1 18266459996136868551
10493431 412 18054800477274442545
10616163 171 18411139112664406262
11046707 91 18409730677123910171
11370993 144 16916517955761329203
11543360 7 15719391793172269227
12107183 9 17541371342140675274
12236239 1 17749392534061481470
12363563 72 18339086002704009255
12553582 1 18335417984827221099
13140716 1 18340488962783208193
13288520 33 18410856568303811111
13675066 3 17917989503163926634
13862211 1 18411135875018635839
14386348 63 17917994953962754494
14790565 3 17907586822313171969
15042514 8 18410016533441990531
15196674 1 18410575127634143204
15536298 74 18268991053969707425
16752209 62 18261663818488179675
16945 1 18410573947008695237
17492 89 17979916334999118719
17804303 29 18413387644160661329
18222031 100 18270674402272329287
19141452 34 17846780749752405951
200 152 16588024589466838308
20028762 73 17985829461378751375
21033648 29 17203314598809963442
21065201 7 18341611465349671010
21267235 1 18408891762974708547
221490 88 18191593162225813571
2297311 6 18341902883091139510
23366157 5 17970347246368186860
23402539 116 18409726249144594518
23557571 272 18201721691948635868
23559900 14 18271250400689538198
25147074 1 18264787600074730613
2748010 2 18267295620510030677
3004659 81 18113614624936730478
312423 11 18190190164135409397
335352 9 18410291424544975637
4214541 1 18410855451569901696
474 4 17024325213363864316
5104073 3 18342177807789199753
559249 180 18261388901826549970
573450 72 18260823774456318682
59755656 215 18267868281237107870
602551 16 18412822482673668010
67856867 119 18260834856110609924
7364860 26 18054791946941650728
7495541 125 18130786776881943360
77492 1 17676211226149614980
7970288 3 18338515373228633302
8863177 126 17536044590725800739
9709674 26 18120654892652843899

> <PUBCHEM_SHAPE_MULTIPOLES>
396.95
10.55
2.4
0.89
7.48
0.59
0
-4.96
0.01
-3.3
-0.01
1.05
-0.1
0.01

> <PUBCHEM_SHAPE_SELFOVERLAP>
889.871

> <PUBCHEM_SHAPE_VOLUME>
208.9

> <PUBCHEM_COORDINATE_TYPE>
2
5
10

> <minimizedAffinity>
-8.30084

> <CNNscore>
0.4674063623

> <CNNaffinity>
5.0280270576

> <CNN_VS>
2.3501317501

> <CNNaffinity_variance>
0.1325965822

$$$$
5280863


 25 27  0  0  0  0  0  0  0  0999 V2000
  -23.6833   -2.5194   10.5488 O   0  0  0  0  0  0  0  0  0  0  0  0
  -26.8854   -2.0720   12.3195 O   0  0  0  0  0  0  0  0  0  0  0  0
  -25.2539   -6.9886   11.5727 O   0  0  0  0  0  0  0  0  0  0  0  0
  -26.5762   -4.8351   12.2441 O   0  0  0  0  0  0  0  0  0  0  0  0
  -21.1674   -6.3282    9.2471 O   0  0  0  0  0  0  0  0  0  0  0  0
  -24.5216   -4.7320   11.0909 C   0  0  0  0  0  0  0  0  0  0  0  0
  -23.5692   -3.8854   10.5277 C   0  0  0  0  0  0  0  0  0  0  0  0
  -24.7888   -1.9577   11.1680 C   0  0  0  0  0  0  0  0  0  0  0  0
  -25.7039   -4.1422   11.7375 C   0  0  0  0  0  0  0  0  0  0  0  0
  -25.7823   -2.6615   11.7405 C   0  0  0  0  0  0  0  0  0  0  0  0
  -24.3531   -6.1180   11.0383 C   0  0  0  0  0  0  0  0  0  0  0  0
  -22.4403   -4.4204    9.9066 C   0  0  0  0  0  0  0  0  0  0  0  0
  -22.2682   -5.8036    9.8522 C   0  0  0  0  0  0  0  0  0  0  0  0
  -23.2228   -6.6505   10.4171 C   0  0  0  0  0  0  0  0  0  0  0  0
  -26.9628   -1.1383   12.3364 H   0  0  0  0  0  0  0  0  0  0  0  0
  -26.0238   -6.6644   11.9971 H   0  0  0  0  0  0  0  0  0  0  0  0
  -20.5260   -5.7602    8.8676 H   0  0  0  0  0  0  0  0  0  0  0  0
  -24.7892    3.6641   10.9826 O   0  0  0  0  0  0  0  0  0  0  0  0
  -24.7882   -0.4847   11.1190 C   0  0  0  0  0  0  0  0  0  0  0  0
  -25.3694    0.1777   10.0375 C   0  0  0  0  0  0  0  0  0  0  0  0
  -24.2072    0.2476   12.1545 C   0  0  0  0  0  0  0  0  0  0  0  0
  -25.3696    1.5719    9.9915 C   0  0  0  0  0  0  0  0  0  0  0  0
  -24.2077    1.6418   12.1086 C   0  0  0  0  0  0  0  0  0  0  0  0
  -24.7887    2.3038   11.0270 C   0  0  0  0  0  0  0  0  0  0  0  0
  -25.1794    4.1090   10.2562 H   0  0  0  0  0  0  0  0  0  0  0  0
  1  7  1  0  0  0
  1  8  1  0  0  0
  2 10  1  0  0  0
  3 11  1  0  0  0
  4  9  2  0  0  0
  5 13  1  0  0  0
 18 24  1  0  0  0
  6  7  1  0  0  0
  6  9  1  0  0  0
  6 11  2  0  0  0
  7 12  2  0  0  0
  8 10  2  0  0  0
  8 19  1  0  0  0
  9 10  1  0  0  0
 19 20  1  0  0  0
 19 21  2  0  0  0
 11 14  1  0  0  0
 12 13  1  0  0  0
 13 14  2  0  0  0
 20 22  2  0  0  0
 21 23  1  0  0  0
 22 24  1  0  0  0
 23 24  2  0  0  0
  2 15  1  0  0  0
  3 16  1  0  0  0
  5 17  1  0  0  0
 18 25  1  0  0  0
M  END
> <PUBCHEM_COMPOUND_CID>
5280863

> <PUBCHEM_CONFORMER_RMSD>
0.6

> <PUBCHEM_CONFORMER_DIVERSEORDER>
1

> <PUBCHEM_MMFF94_PARTIAL_CHARGES>
31
1 -0.16
10 0.47
11 0.09
12 0.03
13 0.08
14 -0.15
15 0.08
16 -0.15
17 -0.15
18 -0.15
19 -0.15
2 -0.53
20 -0.15
21 0.08
22 0.15
23 0.15
24 0.15
25 0.15
26 0.15
27 0.15
28 0.45
29 0.45
3 -0.53
30 0.45
31 0.45
4 -0.57
5 -0.53
6 -0.53
7 0.09
8 0.08
9 0.05

> <PUBCHEM_EFFECTIVE_ROTOR_COUNT>
1

> <PUBCHEM_PHARMACOPHORE_FEATURES>
9
1 1 acceptor
1 2 donor
1 3 donor
1 4 acceptor
1 5 donor
1 6 donor
6 1 7 8 9 10 11 rings
6 12 17 18 19 20 21 rings
6 7 8 13 14 15 16 rings

> <PUBCHEM_HEAVY_ATOM_COUNT>
21

> <PUBCHEM_ATOM_DEF_STEREO_COUNT>
0

> <PUBCHEM_ATOM_UDEF_STEREO_COUNT>
0

> <PUBCHEM_BOND_DEF_STEREO_COUNT>
0

> <PUBCHEM_BOND_UDEF_STEREO_COUNT>
0

> <PUBCHEM_ISOTOPIC_ATOM_COUNT>
0

> <PUBCHEM_COMPONENT_COUNT>
1

> <PUBCHEM_CACTVS_TAUTO_COUNT>
126

> <PUBCHEM_CONFORMER_ID>
0050945F00000001

> <PUBCHEM_MMFF94_ENERGY>
63.6634

> <PUBCHEM_FEATURE_SELFOVERLAP>
45.701

> <PUBCHEM_SHAPE_FINGERPRINT>
10062212 137 18259704501815817475
10319926 262 18198039440708472114
10411042 1 18266459996136868551
10493431 412 18054800477274442545
10616163 171 18411139112664406262
11046707 91 18409730677123910171
11370993 144 16916517955761329203
11543360 7 15719391793172269227
12107183 9 17541371342140675274
12236239 1 17749392534061481470
12363563 72 18339086002704009255
12553582 1 18335417984827221099
13140716 1 18340488962783208193
13288520 33 18410856568303811111
13675066 3 17917989503163926634
13862211 1 18411135875018635839
14386348 63 17917994953962754494
14790565 3 17907586822313171969
15042514 8 18410016533441990531
15196674 1 18410575127634143204
15536298 74 18268991053969707425
16752209 62 18261663818488179675
16945 1 18410573947008695237
17492 89 17979916334999118719
17804303 29 18413387644160661329
18222031 100 18270674402272329287
19141452 34 17846780749752405951
200 152 16588024589466838308
20028762 73 17985829461378751375
21033648 29 17203314598809963442
21065201 7 18341611465349671010
21267235 1 18408891762974708547
221490 88 18191593162225813571
2297311 6 18341902883091139510
23366157 5 17970347246368186860
23402539 116 18409726249144594518
23557571 272 18201721691948635868
23559900 14 18271250400689538198
25147074 1 18264787600074730613
2748010 2 18267295620510030677
3004659 81 18113614624936730478
312423 11 18190190164135409397
335352 9 18410291424544975637
4214541 1 18410855451569901696
474 4 17024325213363864316
5104073 3 18342177807789199753
559249 180 18261388901826549970
573450 72 18260823774456318682
59755656 215 18267868281237107870
602551 16 18412822482673668010
67856867 119 18260834856110609924
7364860 26 18054791946941650728
7495541 125 18130786776881943360
77492 1 17676211226149614980
7970288 3 18338515373228633302
8863177 126 17536044590725800739
9709674 26 18120654892652843899

> <PUBCHEM_SHAPE_MULTIPOLES>
396.95
10.55
2.4
0.89
7.48
0.59
0
-4.96
0.01
-3.3
-0.01
1.05
-0.1
0.01

> <PUBCHEM_SHAPE_SELFOVERLAP>
889.871

> <PUBCHEM_SHAPE_VOLUME>
208.9

> <PUBCHEM_COORDINATE_TYPE>
2
5
10

> <minimizedAffinity>
-4.60060

> <CNNscore>
0.4397028983

> <CNNaffinity>
4.3527731895

> <CNN_VS>
1.9139269590

> <CNNaffinity_variance>
0.2073066235

$$$$
5280863


 25 27  0  0  0  0  0  0  0  0999 V2000
  -19.3064   -2.4524   10.7805 O   0  0  0  0  0  0  0  0  0  0  0  0
  -20.5606    0.6050   12.4139 O   0  0  0  0  0  0  0  0  0  0  0  0
  -23.5724   -3.6632   12.7358 O   0  0  0  0  0  0  0  0  0  0  0  0
  -22.5565   -1.2618   12.9311 O   0  0  0  0  0  0  0  0  0  0  0  0
  -21.0173   -6.8564   10.3236 O   0  0  0  0  0  0  0  0  0  0  0  0
  -21.4486   -2.9985   11.7829 C   0  0  0  0  0  0  0  0  0  0  0  0
  -20.3135   -3.3421   11.0520 C   0  0  0  0  0  0  0  0  0  0  0  0
  -19.4186   -1.1587   11.2650 C   0  0  0  0  0  0  0  0  0  0  0  0
  -21.5799   -1.6234   12.2883 C   0  0  0  0  0  0  0  0  0  0  0  0
  -20.4648   -0.6978   11.9746 C   0  0  0  0  0  0  0  0  0  0  0  0
  -22.4442   -3.9477   12.0279 C   0  0  0  0  0  0  0  0  0  0  0  0
  -20.1666   -4.6393   10.5598 C   0  0  0  0  0  0  0  0  0  0  0  0
  -21.1583   -5.5898   10.8024 C   0  0  0  0  0  0  0  0  0  0  0  0
  -22.2947   -5.2446   11.5351 C   0  0  0  0  0  0  0  0  0  0  0  0
  -19.8716    1.2130   12.2309 H   0  0  0  0  0  0  0  0  0  0  0  0
  -23.7044   -2.8021   13.0810 H   0  0  0  0  0  0  0  0  0  0  0  0
  -20.2545   -7.0890    9.8316 H   0  0  0  0  0  0  0  0  0  0  0  0
  -15.0390    2.0871    9.8786 O   0  0  0  0  0  0  0  0  0  0  0  0
  -18.2714   -0.3077   10.9023 C   0  0  0  0  0  0  0  0  0  0  0  0
  -17.1340   -0.2882   11.7099 C   0  0  0  0  0  0  0  0  0  0  0  0
  -18.3220    0.4779    9.7506 C   0  0  0  0  0  0  0  0  0  0  0  0
  -16.0479    0.5167   11.3661 C   0  0  0  0  0  0  0  0  0  0  0  0
  -17.2358    1.2826    9.4066 C   0  0  0  0  0  0  0  0  0  0  0  0
  -16.0988    1.3021   10.2146 C   0  0  0  0  0  0  0  0  0  0  0  0
  -14.2752    2.1003   10.4212 H   0  0  0  0  0  0  0  0  0  0  0  0
  1  7  1  0  0  0
  1  8  1  0  0  0
  2 10  1  0  0  0
  3 11  1  0  0  0
  4  9  2  0  0  0
  5 13  1  0  0  0
 18 24  1  0  0  0
  6  7  1  0  0  0
  6  9  1  0  0  0
  6 11  2  0  0  0
  7 12  2  0  0  0
  8 10  2  0  0  0
  8 19  1  0  0  0
  9 10  1  0  0  0
 19 20  1  0  0  0
 19 21  2  0  0  0
 11 14  1  0  0  0
 12 13  1  0  0  0
 13 14  2  0  0  0
 20 22  2  0  0  0
 21 23  1  0  0  0
 22 24  1  0  0  0
 23 24  2  0  0  0
  2 15  1  0  0  0
  3 16  1  0  0  0
  5 17  1  0  0  0
 18 25  1  0  0  0
M  END
> <PUBCHEM_COMPOUND_CID>
5280863

> <PUBCHEM_CONFORMER_RMSD>
0.6

> <PUBCHEM_CONFORMER_DIVERSEORDER>
1

> <PUBCHEM_MMFF94_PARTIAL_CHARGES>
31
1 -0.16
10 0.47
11 0.09
12 0.03
13 0.08
14 -0.15
15 0.08
16 -0.15
17 -0.15
18 -0.15
19 -0.15
2 -0.53
20 -0.15
21 0.08
22 0.15
23 0.15
24 0.15
25 0.15
26 0.15
27 0.15
28 0.45
29 0.45
3 -0.53
30 0.45
31 0.45
4 -0.57
5 -0.53
6 -0.53
7 0.09
8 0.08
9 0.05

> <PUBCHEM_EFFECTIVE_ROTOR_COUNT>
1

> <PUBCHEM_PHARMACOPHORE_FEATURES>
9
1 1 acceptor
1 2 donor
1 3 donor
1 4 acceptor
1 5 donor
1 6 donor
6 1 7 8 9 10 11 rings
6 12 17 18 19 20 21 rings
6 7 8 13 14 15 16 rings

> <PUBCHEM_HEAVY_ATOM_COUNT>
21

> <PUBCHEM_ATOM_DEF_STEREO_COUNT>
0

> <PUBCHEM_ATOM_UDEF_STEREO_COUNT>
0

> <PUBCHEM_BOND_DEF_STEREO_COUNT>
0

> <PUBCHEM_BOND_UDEF_STEREO_COUNT>
0

> <PUBCHEM_ISOTOPIC_ATOM_COUNT>
0

> <PUBCHEM_COMPONENT_COUNT>
1

> <PUBCHEM_CACTVS_TAUTO_COUNT>
126

> <PUBCHEM_CONFORMER_ID>
0050945F00000001

> <PUBCHEM_MMFF94_ENERGY>
63.6634

> <PUBCHEM_FEATURE_SELFOVERLAP>
45.701

> <PUBCHEM_SHAPE_FINGERPRINT>
10062212 137 18259704501815817475
10319926 262 18198039440708472114
10411042 1 18266459996136868551
10493431 412 18054800477274442545
10616163 171 18411139112664406262
11046707 91 18409730677123910171
11370993 144 16916517955761329203
11543360 7 15719391793172269227
12107183 9 17541371342140675274
12236239 1 17749392534061481470
12363563 72 18339086002704009255
12553582 1 18335417984827221099
13140716 1 18340488962783208193
13288520 33 18410856568303811111
13675066 3 17917989503163926634
13862211 1 18411135875018635839
14386348 63 17917994953962754494
14790565 3 17907586822313171969
15042514 8 18410016533441990531
15196674 1 18410575127634143204
15536298 74 18268991053969707425
16752209 62 18261663818488179675
16945 1 18410573947008695237
17492 89 17979916334999118719
17804303 29 18413387644160661329
18222031 100 18270674402272329287
19141452 34 17846780749752405951
200 152 16588024589466838308
20028762 73 17985829461378751375
21033648 29 17203314598809963442
21065201 7 18341611465349671010
21267235 1 18408891762974708547
221490 88 18191593162225813571
2297311 6 18341902883091139510
23366157 5 17970347246368186860
23402539 116 18409726249144594518
23557571 272 18201721691948635868
23559900 14 18271250400689538198
25147074 1 18264787600074730613
2748010 2 18267295620510030677
3004659 81 18113614624936730478
312423 11 18190190164135409397
335352 9 18410291424544975637
4214541 1 18410855451569901696
474 4 17024325213363864316
5104073 3 18342177807789199753
559249 180 18261388901826549970
573450 72 18260823774456318682
59755656 215 18267868281237107870
602551 16 18412822482673668010
67856867 119 18260834856110609924
7364860 26 18054791946941650728
7495541 125 18130786776881943360
77492 1 17676211226149614980
7970288 3 18338515373228633302
8863177 126 17536044590725800739
9709674 26 18120654892652843899

> <PUBCHEM_SHAPE_MULTIPOLES>
396.95
10.55
2.4
0.89
7.48
0.59
0
-4.96
0.01
-3.3
-0.01
1.05
-0.1
0.01

> <PUBCHEM_SHAPE_SELFOVERLAP>
889.871

> <PUBCHEM_SHAPE_VOLUME>
208.9

> <PUBCHEM_COORDINATE_TYPE>
2
5
10

> <minimizedAffinity>
-5.70435

> <CNNscore>
0.4273844063

> <CNNaffinity>
4.4893779755

> <CNN_VS>
1.9186900854

> <CNNaffinity_variance>
0.3113454282

$$$$
5280863


 25 27  0  0  0  0  0  0  0  0999 V2000
  -23.3548   -1.1281   11.3244 O   0  0  0  0  0  0  0  0  0  0  0  0
  -25.7937   -3.6795   12.3874 O   0  0  0  0  0  0  0  0  0  0  0  0
  -26.8774    1.2932   13.6085 O   0  0  0  0  0  0  0  0  0  0  0  0
  -26.9121   -1.3036   13.3042 O   0  0  0  0  0  0  0  0  0  0  0  0
  -23.1338    3.5892   11.8034 O   0  0  0  0  0  0  0  0  0  0  0  0
  -25.1502    0.0286   12.4778 C   0  0  0  0  0  0  0  0  0  0  0  0
  -23.9355    0.0209   11.7956 C   0  0  0  0  0  0  0  0  0  0  0  0
  -24.0116   -2.3318   11.5258 C   0  0  0  0  0  0  0  0  0  0  0  0
  -25.8456   -1.2472   12.7066 C   0  0  0  0  0  0  0  0  0  0  0  0
  -25.1827   -2.4625   12.1753 C   0  0  0  0  0  0  0  0  0  0  0  0
  -25.6943    1.2309   12.9366 C   0  0  0  0  0  0  0  0  0  0  0  0
  -23.2554    1.2176   11.5681 C   0  0  0  0  0  0  0  0  0  0  0  0
  -23.7953    2.4201   12.0245 C   0  0  0  0  0  0  0  0  0  0  0  0
  -25.0123    2.4266   12.7073 C   0  0  0  0  0  0  0  0  0  0  0  0
  -25.3986   -4.4649   12.0635 H   0  0  0  0  0  0  0  0  0  0  0  0
  -27.3610    0.5090   13.7793 H   0  0  0  0  0  0  0  0  0  0  0  0
  -22.3166    3.5857   11.3450 H   0  0  0  0  0  0  0  0  0  0  0  0
  -21.2186   -6.7320    9.4104 O   0  0  0  0  0  0  0  0  0  0  0  0
  -23.2804   -3.4852   10.9718 C   0  0  0  0  0  0  0  0  0  0  0  0
  -23.5394   -3.9159    9.6704 C   0  0  0  0  0  0  0  0  0  0  0  0
  -22.3283   -4.1461   11.7482 C   0  0  0  0  0  0  0  0  0  0  0  0
  -22.8467   -5.0071    9.1457 C   0  0  0  0  0  0  0  0  0  0  0  0
  -21.6355   -5.2371   11.2235 C   0  0  0  0  0  0  0  0  0  0  0  0
  -21.8949   -5.6677    9.9222 C   0  0  0  0  0  0  0  0  0  0  0  0
  -21.3927   -7.0215    8.5364 H   0  0  0  0  0  0  0  0  0  0  0  0
  1  7  1  0  0  0
  1  8  1  0  0  0
  2 10  1  0  0  0
  3 11  1  0  0  0
  4  9  2  0  0  0
  5 13  1  0  0  0
 18 24  1  0  0  0
  6  7  1  0  0  0
  6  9  1  0  0  0
  6 11  2  0  0  0
  7 12  2  0  0  0
  8 10  2  0  0  0
  8 19  1  0  0  0
  9 10  1  0  0  0
 19 20  1  0  0  0
 19 21  2  0  0  0
 11 14  1  0  0  0
 12 13  1  0  0  0
 13 14  2  0  0  0
 20 22  2  0  0  0
 21 23  1  0  0  0
 22 24  1  0  0  0
 23 24  2  0  0  0
  2 15  1  0  0  0
  3 16  1  0  0  0
  5 17  1  0  0  0
 18 25  1  0  0  0
M  END
> <PUBCHEM_COMPOUND_CID>
5280863

> <PUBCHEM_CONFORMER_RMSD>
0.6

> <PUBCHEM_CONFORMER_DIVERSEORDER>
1

> <PUBCHEM_MMFF94_PARTIAL_CHARGES>
31
1 -0.16
10 0.47
11 0.09
12 0.03
13 0.08
14 -0.15
15 0.08
16 -0.15
17 -0.15
18 -0.15
19 -0.15
2 -0.53
20 -0.15
21 0.08
22 0.15
23 0.15
24 0.15
25 0.15
26 0.15
27 0.15
28 0.45
29 0.45
3 -0.53
30 0.45
31 0.45
4 -0.57
5 -0.53
6 -0.53
7 0.09
8 0.08
9 0.05

> <PUBCHEM_EFFECTIVE_ROTOR_COUNT>
1

> <PUBCHEM_PHARMACOPHORE_FEATURES>
9
1 1 acceptor
1 2 donor
1 3 donor
1 4 acceptor
1 5 donor
1 6 donor
6 1 7 8 9 10 11 rings
6 12 17 18 19 20 21 rings
6 7 8 13 14 15 16 rings

> <PUBCHEM_HEAVY_ATOM_COUNT>
21

> <PUBCHEM_ATOM_DEF_STEREO_COUNT>
0

> <PUBCHEM_ATOM_UDEF_STEREO_COUNT>
0

> <PUBCHEM_BOND_DEF_STEREO_COUNT>
0

> <PUBCHEM_BOND_UDEF_STEREO_COUNT>
0

> <PUBCHEM_ISOTOPIC_ATOM_COUNT>
0

> <PUBCHEM_COMPONENT_COUNT>
1

> <PUBCHEM_CACTVS_TAUTO_COUNT>
126

> <PUBCHEM_CONFORMER_ID>
0050945F00000001

> <PUBCHEM_MMFF94_ENERGY>
63.6634

> <PUBCHEM_FEATURE_SELFOVERLAP>
45.701

> <PUBCHEM_SHAPE_FINGERPRINT>
10062212 137 18259704501815817475
10319926 262 18198039440708472114
10411042 1 18266459996136868551
10493431 412 18054800477274442545
10616163 171 18411139112664406262
11046707 91 18409730677123910171
11370993 144 16916517955761329203
11543360 7 15719391793172269227
12107183 9 17541371342140675274
12236239 1 17749392534061481470
12363563 72 18339086002704009255
12553582 1 18335417984827221099
13140716 1 18340488962783208193
13288520 33 18410856568303811111
13675066 3 17917989503163926634
13862211 1 18411135875018635839
14386348 63 17917994953962754494
14790565 3 17907586822313171969
15042514 8 18410016533441990531
15196674 1 18410575127634143204
15536298 74 18268991053969707425
16752209 62 18261663818488179675
16945 1 18410573947008695237
17492 89 17979916334999118719
17804303 29 18413387644160661329
18222031 100 18270674402272329287
19141452 34 17846780749752405951
200 152 16588024589466838308
20028762 73 17985829461378751375
21033648 29 17203314598809963442
21065201 7 18341611465349671010
21267235 1 18408891762974708547
221490 88 18191593162225813571
2297311 6 18341902883091139510
23366157 5 17970347246368186860
23402539 116 18409726249144594518
23557571 272 18201721691948635868
23559900 14 18271250400689538198
25147074 1 18264787600074730613
2748010 2 18267295620510030677
3004659 81 18113614624936730478
312423 11 18190190164135409397
335352 9 18410291424544975637
4214541 1 18410855451569901696
474 4 17024325213363864316
5104073 3 18342177807789199753
559249 180 18261388901826549970
573450 72 18260823774456318682
59755656 215 18267868281237107870
602551 16 18412822482673668010
67856867 119 18260834856110609924
7364860 26 18054791946941650728
7495541 125 18130786776881943360
77492 1 17676211226149614980
7970288 3 18338515373228633302
8863177 126 17536044590725800739
9709674 26 18120654892652843899

> <PUBCHEM_SHAPE_MULTIPOLES>
396.95
10.55
2.4
0.89
7.48
0.59
0
-4.96
0.01
-3.3
-0.01
1.05
-0.1
0.01

> <PUBCHEM_SHAPE_SELFOVERLAP>
889.871

> <PUBCHEM_SHAPE_VOLUME>
208.9

> <PUBCHEM_COORDINATE_TYPE>
2
5
10

> <minimizedAffinity>
-4.65918

> <CNNscore>
0.4150993824

> <CNNaffinity>
4.2169084549

> <CNN_VS>
1.7504360676

> <CNNaffinity_variance>
0.1489146203

$$$$
