5280961


 23 25  0  0  0  0  0  0  0  0999 V2000
  -18.4531    2.2014   13.3205 O   0  0  0  0  0  0  0  0  0  0  0  0
  -18.1078   -1.9592   10.8593 O   0  0  0  0  0  0  0  0  0  0  0  0
  -18.8696   -1.8575   13.3433 O   0  0  0  0  0  0  0  0  0  0  0  0
  -17.1089    2.1832    8.7663 O   0  0  0  0  0  0  0  0  0  0  0  0
  -18.2993    0.0852   12.1420 C   0  0  0  0  0  0  0  0  0  0  0  0
  -18.9895    0.1843   14.5623 C   0  0  0  0  0  0  0  0  0  0  0  0
  -18.1851    1.4741   12.1892 C   0  0  0  0  0  0  0  0  0  0  0  0
  -18.7282   -0.6414   13.3512 C   0  0  0  0  0  0  0  0  0  0  0  0
  -18.0138   -0.6038   10.9603 C   0  0  0  0  0  0  0  0  0  0  0  0
  -18.8315    1.5115   14.4467 C   0  0  0  0  0  0  0  0  0  0  0  0
  -17.7851    2.1820   11.0553 C   0  0  0  0  0  0  0  0  0  0  0  0
  -17.6133    0.1063    9.8277 C   0  0  0  0  0  0  0  0  0  0  0  0
  -17.4994    1.4961    9.8748 C   0  0  0  0  0  0  0  0  0  0  0  0
  -18.3738   -2.4668   11.6006 H   0  0  0  0  0  0  0  0  0  0  0  0
  -17.0320    3.1165    8.7965 H   0  0  0  0  0  0  0  0  0  0  0  0
  -20.5008   -2.1203   19.4667 O   0  0  0  0  0  0  0  0  0  0  0  0
  -19.3857   -0.4182   15.8455 C   0  0  0  0  0  0  0  0  0  0  0  0
  -19.9533   -1.6938   15.8747 C   0  0  0  0  0  0  0  0  0  0  0  0
  -19.1942    0.2832   17.0376 C   0  0  0  0  0  0  0  0  0  0  0  0
  -20.3280   -2.2654   17.0907 C   0  0  0  0  0  0  0  0  0  0  0  0
  -19.5687   -0.2884   18.2535 C   0  0  0  0  0  0  0  0  0  0  0  0
  -20.1358   -1.5626   18.2802 C   0  0  0  0  0  0  0  0  0  0  0  0
  -20.8816   -2.9762   19.4846 H   0  0  0  0  0  0  0  0  0  0  0  0
  1  7  1  0  0  0
  1 10  1  0  0  0
  2  9  1  0  0  0
  3  8  2  0  0  0
  4 13  1  0  0  0
 16 22  1  0  0  0
  5  7  1  0  0  0
  5  8  1  0  0  0
  5  9  2  0  0  0
  6  8  1  0  0  0
  6 17  1  0  0  0
  6 10  2  0  0  0
  7 11  2  0  0  0
 17 18  1  0  0  0
 17 19  2  0  0  0
  9 12  1  0  0  0
 11 13  1  0  0  0
 12 13  2  0  0  0
 18 20  2  0  0  0
 19 21  1  0  0  0
 20 22  1  0  0  0
 21 22  2  0  0  0
  2 14  1  0  0  0
  4 15  1  0  0  0
 16 23  1  0  0  0
M  END
> <PUBCHEM_COMPOUND_CID>
5280961

> <PUBCHEM_CONFORMER_RMSD>
0.6

> <PUBCHEM_CONFORMER_DIVERSEORDER>
1
2

> <PUBCHEM_MMFF94_PARTIAL_CHARGES>
30
1 -0.16
10 0.03
11 0.08
12 -0.07
13 -0.15
14 -0.15
15 0.08
16 -0.15
17 -0.15
18 -0.15
19 -0.15
2 -0.53
20 0.08
21 0.15
22 0.15
23 0.15
24 0.15
25 0.15
26 0.15
27 0.15
28 0.45
29 0.45
3 -0.57
30 0.45
4 -0.53
5 -0.53
6 0.09
7 -0.01
8 0.08
9 0.47

> <PUBCHEM_EFFECTIVE_ROTOR_COUNT>
1

> <PUBCHEM_PHARMACOPHORE_FEATURES>
8
1 1 acceptor
1 2 donor
1 3 acceptor
1 4 donor
1 5 donor
6 1 6 7 8 9 12 rings
6 10 16 17 18 19 20 rings
6 6 8 11 13 14 15 rings

> <PUBCHEM_HEAVY_ATOM_COUNT>
20

> <PUBCHEM_ATOM_DEF_STEREO_COUNT>
0

> <PUBCHEM_ATOM_UDEF_STEREO_COUNT>
0

> <PUBCHEM_BOND_DEF_STEREO_COUNT>
0

> <PUBCHEM_BOND_UDEF_STEREO_COUNT>
0

> <PUBCHEM_ISOTOPIC_ATOM_COUNT>
0

> <PUBCHEM_COMPONENT_COUNT>
1

> <PUBCHEM_CACTVS_TAUTO_COUNT>
24

> <PUBCHEM_CONFORMER_ID>
005094C100000001

> <PUBCHEM_MMFF94_ENERGY>
62.2288

> <PUBCHEM_FEATURE_SELFOVERLAP>
40.625

> <PUBCHEM_SHAPE_FINGERPRINT>
10 15 17968651735852241568
11471102 20 18410011039915055268
11796584 16 16298104272158585042
12011746 2 18408891737046259404
12107183 9 17481158795205446827
12236239 1 17775568632984956433
12596602 18 17346595322179823779
13140716 1 18194963165723870696
13836976 161 18334862748893370556
13862211 1 18410853231726210242
14386348 63 17894634751351534131
15196674 1 18338798901320010860
15375358 24 18040718064813932202
15375462 189 18131630071354825257
15788980 27 15936413342343465497
15961568 22 15936980763574484908
16945 1 18410855465014102696
1813 80 18271540705560145676
19489759 90 16153423943970350949
200 152 18343862212954338993
20279233 1 17821452352412486003
20645477 70 18335980874408649870
21033648 29 18114445830026487037
21065198 48 17988931015991034643
21267235 1 18339929225607664382
21641784 216 18042422273963395132
22224240 67 18342450487532548904
23402539 116 17775565342486457572
23536379 177 15841559565638082980
23557571 272 17095518474807470397
23559900 14 16950281750432500898
26918003 58 18260551134301111081
2748010 2 18121775029009032932
2871803 45 18334013852823096778
335352 9 18411139165358697628
33824 294 18408039594149944154
34797466 226 16226060980367338734
34934 24 18409725188361700594
3545911 37 18410293635509107947
4072396 5 18262223474792275538
42630746 31 18413672409272107838
4340502 62 16949999236168377650
474 4 17772457134984702568
5104073 3 18265892467099301696
542803 24 17418095416598888849
602551 16 16226338113105518851
7495541 125 17095532836967104597
77492 1 17703790323495757877

> <PUBCHEM_SHAPE_MULTIPOLES>
382.24
11.31
1.69
0.91
4.74
0.43
0.01
0.27
0.19
-1.88
-0.02
1.1
-0.03
0.03

> <PUBCHEM_SHAPE_SELFOVERLAP>
856.838

> <PUBCHEM_SHAPE_VOLUME>
201.4

> <PUBCHEM_COORDINATE_TYPE>
2
5
10

> <minimizedAffinity>
-8.69045

> <CNNscore>
0.7067466378

> <CNNaffinity>
5.3900527954

> <CNN_VS>
3.8094017506

> <CNNaffinity_variance>
0.1238087192

$$$$
5280961


 23 25  0  0  0  0  0  0  0  0999 V2000
  -21.4456   -1.0180   15.4568 O   0  0  0  0  0  0  0  0  0  0  0  0
  -17.2626   -1.8424   17.7610 O   0  0  0  0  0  0  0  0  0  0  0  0
  -17.3712   -1.1218   15.2651 O   0  0  0  0  0  0  0  0  0  0  0  0
  -21.4066   -2.2656   20.0382 O   0  0  0  0  0  0  0  0  0  0  0  0
  -19.3183   -1.4170   16.5550 C   0  0  0  0  0  0  0  0  0  0  0  0
  -19.4307   -0.7665   14.1242 C   0  0  0  0  0  0  0  0  0  0  0  0
  -20.7113   -1.3545   16.5649 C   0  0  0  0  0  0  0  0  0  0  0  0
  -18.5946   -1.1074   15.3081 C   0  0  0  0  0  0  0  0  0  0  0  0
  -18.6220   -1.7651   17.7155 C   0  0  0  0  0  0  0  0  0  0  0  0
  -20.7613   -0.7522   14.2955 C   0  0  0  0  0  0  0  0  0  0  0  0
  -21.4159   -1.6392   17.7350 C   0  0  0  0  0  0  0  0  0  0  0  0
  -19.3290   -2.0501   18.8844 C   0  0  0  0  0  0  0  0  0  0  0  0
  -20.7228   -1.9872   18.8944 C   0  0  0  0  0  0  0  0  0  0  0  0
  -16.7569   -1.6574   16.9942 H   0  0  0  0  0  0  0  0  0  0  0  0
  -22.3427   -2.2238   20.0464 H   0  0  0  0  0  0  0  0  0  0  0  0
  -17.1655    0.3486    9.0970 O   0  0  0  0  0  0  0  0  0  0  0  0
  -18.8372   -0.4749   12.8092 C   0  0  0  0  0  0  0  0  0  0  0  0
  -18.8006   -1.4627   11.8228 C   0  0  0  0  0  0  0  0  0  0  0  0
  -18.3100    0.7905   12.5436 C   0  0  0  0  0  0  0  0  0  0  0  0
  -18.2391   -1.1863   10.5762 C   0  0  0  0  0  0  0  0  0  0  0  0
  -17.7486    1.0669   11.2971 C   0  0  0  0  0  0  0  0  0  0  0  0
  -17.7129    0.0786   10.3133 C   0  0  0  0  0  0  0  0  0  0  0  0
  -17.1416   -0.3153    8.4362 H   0  0  0  0  0  0  0  0  0  0  0  0
  1  7  1  0  0  0
  1 10  1  0  0  0
  2  9  1  0  0  0
  3  8  2  0  0  0
  4 13  1  0  0  0
 16 22  1  0  0  0
  5  7  1  0  0  0
  5  8  1  0  0  0
  5  9  2  0  0  0
  6  8  1  0  0  0
  6 17  1  0  0  0
  6 10  2  0  0  0
  7 11  2  0  0  0
 17 18  1  0  0  0
 17 19  2  0  0  0
  9 12  1  0  0  0
 11 13  1  0  0  0
 12 13  2  0  0  0
 18 20  2  0  0  0
 19 21  1  0  0  0
 20 22  1  0  0  0
 21 22  2  0  0  0
  2 14  1  0  0  0
  4 15  1  0  0  0
 16 23  1  0  0  0
M  END
> <PUBCHEM_COMPOUND_CID>
5280961

> <PUBCHEM_CONFORMER_RMSD>
0.6

> <PUBCHEM_CONFORMER_DIVERSEORDER>
1
2

> <PUBCHEM_MMFF94_PARTIAL_CHARGES>
30
1 -0.16
10 0.03
11 0.08
12 -0.07
13 -0.15
14 -0.15
15 0.08
16 -0.15
17 -0.15
18 -0.15
19 -0.15
2 -0.53
20 0.08
21 0.15
22 0.15
23 0.15
24 0.15
25 0.15
26 0.15
27 0.15
28 0.45
29 0.45
3 -0.57
30 0.45
4 -0.53
5 -0.53
6 0.09
7 -0.01
8 0.08
9 0.47

> <PUBCHEM_EFFECTIVE_ROTOR_COUNT>
1

> <PUBCHEM_PHARMACOPHORE_FEATURES>
8
1 1 acceptor
1 2 donor
1 3 acceptor
1 4 donor
1 5 donor
6 1 6 7 8 9 12 rings
6 10 16 17 18 19 20 rings
6 6 8 11 13 14 15 rings

> <PUBCHEM_HEAVY_ATOM_COUNT>
20

> <PUBCHEM_ATOM_DEF_STEREO_COUNT>
0

> <PUBCHEM_ATOM_UDEF_STEREO_COUNT>
0

> <PUBCHEM_BOND_DEF_STEREO_COUNT>
0

> <PUBCHEM_BOND_UDEF_STEREO_COUNT>
0

> <PUBCHEM_ISOTOPIC_ATOM_COUNT>
0

> <PUBCHEM_COMPONENT_COUNT>
1

> <PUBCHEM_CACTVS_TAUTO_COUNT>
24

> <PUBCHEM_CONFORMER_ID>
005094C100000001

> <PUBCHEM_MMFF94_ENERGY>
62.2288

> <PUBCHEM_FEATURE_SELFOVERLAP>
40.625

> <PUBCHEM_SHAPE_FINGERPRINT>
10 15 17968651735852241568
11471102 20 18410011039915055268
11796584 16 16298104272158585042
12011746 2 18408891737046259404
12107183 9 17481158795205446827
12236239 1 17775568632984956433
12596602 18 17346595322179823779
13140716 1 18194963165723870696
13836976 161 18334862748893370556
13862211 1 18410853231726210242
14386348 63 17894634751351534131
15196674 1 18338798901320010860
15375358 24 18040718064813932202
15375462 189 18131630071354825257
15788980 27 15936413342343465497
15961568 22 15936980763574484908
16945 1 18410855465014102696
1813 80 18271540705560145676
19489759 90 16153423943970350949
200 152 18343862212954338993
20279233 1 17821452352412486003
20645477 70 18335980874408649870
21033648 29 18114445830026487037
21065198 48 17988931015991034643
21267235 1 18339929225607664382
21641784 216 18042422273963395132
22224240 67 18342450487532548904
23402539 116 17775565342486457572
23536379 177 15841559565638082980
23557571 272 17095518474807470397
23559900 14 16950281750432500898
26918003 58 18260551134301111081
2748010 2 18121775029009032932
2871803 45 18334013852823096778
335352 9 18411139165358697628
33824 294 18408039594149944154
34797466 226 16226060980367338734
34934 24 18409725188361700594
3545911 37 18410293635509107947
4072396 5 18262223474792275538
42630746 31 18413672409272107838
4340502 62 16949999236168377650
474 4 17772457134984702568
5104073 3 18265892467099301696
542803 24 17418095416598888849
602551 16 16226338113105518851
7495541 125 17095532836967104597
77492 1 17703790323495757877

> <PUBCHEM_SHAPE_MULTIPOLES>
382.24
11.31
1.69
0.91
4.74
0.43
0.01
0.27
0.19
-1.88
-0.02
1.1
-0.03
0.03

> <PUBCHEM_SHAPE_SELFOVERLAP>
856.838

> <PUBCHEM_SHAPE_VOLUME>
201.4

> <PUBCHEM_COORDINATE_TYPE>
2
5
10

> <minimizedAffinity>
-3.12706

> <CNNscore>
0.5948293209

> <CNNaffinity>
5.2635803223

> <CNN_VS>
3.1309318542

> <CNNaffinity_variance>
0.1836062372

$$$$
5280961


 23 25  0  0  0  0  0  0  0  0999 V2000
  -19.9545   -0.5032   12.6385 O   0  0  0  0  0  0  0  0  0  0  0  0
  -17.0246   -3.0064    9.6997 O   0  0  0  0  0  0  0  0  0  0  0  0
  -19.3914   -3.8482   10.3709 O   0  0  0  0  0  0  0  0  0  0  0  0
  -15.6829    1.1971   11.4512 O   0  0  0  0  0  0  0  0  0  0  0  0
  -18.5331   -1.8039   11.1625 C   0  0  0  0  0  0  0  0  0  0  0  0
  -20.8068   -2.6381   11.8547 C   0  0  0  0  0  0  0  0  0  0  0  0
  -18.7849   -0.6769   11.9439 C   0  0  0  0  0  0  0  0  0  0  0  0
  -19.5609   -2.8572   11.0694 C   0  0  0  0  0  0  0  0  0  0  0  0
  -17.3226   -1.9268   10.4754 C   0  0  0  0  0  0  0  0  0  0  0  0
  -20.8958   -1.5009   12.5609 C   0  0  0  0  0  0  0  0  0  0  0  0
  -17.8281    0.3339   12.0425 C   0  0  0  0  0  0  0  0  0  0  0  0
  -16.3669   -0.9149   10.5762 C   0  0  0  0  0  0  0  0  0  0  0  0
  -16.6190    0.2131   11.3577 C   0  0  0  0  0  0  0  0  0  0  0  0
  -17.6437   -3.7040    9.6101 H   0  0  0  0  0  0  0  0  0  0  0  0
  -15.8508    1.9552   11.9757 H   0  0  0  0  0  0  0  0  0  0  0  0
  -24.9670   -6.4238   11.9518 O   0  0  0  0  0  0  0  0  0  0  0  0
  -21.8954   -3.6285   11.8810 C   0  0  0  0  0  0  0  0  0  0  0  0
  -23.1848   -3.2624   11.4892 C   0  0  0  0  0  0  0  0  0  0  0  0
  -21.6420   -4.9373   12.2966 C   0  0  0  0  0  0  0  0  0  0  0  0
  -24.2164   -4.2011   11.5132 C   0  0  0  0  0  0  0  0  0  0  0  0
  -22.6734   -5.8758   12.3204 C   0  0  0  0  0  0  0  0  0  0  0  0
  -23.9608   -5.5078   11.9289 C   0  0  0  0  0  0  0  0  0  0  0  0
  -25.8317   -6.1766   11.6888 H   0  0  0  0  0  0  0  0  0  0  0  0
  1  7  1  0  0  0
  1 10  1  0  0  0
  2  9  1  0  0  0
  3  8  2  0  0  0
  4 13  1  0  0  0
 16 22  1  0  0  0
  5  7  1  0  0  0
  5  8  1  0  0  0
  5  9  2  0  0  0
  6  8  1  0  0  0
  6 17  1  0  0  0
  6 10  2  0  0  0
  7 11  2  0  0  0
 17 18  1  0  0  0
 17 19  2  0  0  0
  9 12  1  0  0  0
 11 13  1  0  0  0
 12 13  2  0  0  0
 18 20  2  0  0  0
 19 21  1  0  0  0
 20 22  1  0  0  0
 21 22  2  0  0  0
  2 14  1  0  0  0
  4 15  1  0  0  0
 16 23  1  0  0  0
M  END
> <PUBCHEM_COMPOUND_CID>
5280961

> <PUBCHEM_CONFORMER_RMSD>
0.6

> <PUBCHEM_CONFORMER_DIVERSEORDER>
1
2

> <PUBCHEM_MMFF94_PARTIAL_CHARGES>
30
1 -0.16
10 0.03
11 0.08
12 -0.07
13 -0.15
14 -0.15
15 0.08
16 -0.15
17 -0.15
18 -0.15
19 -0.15
2 -0.53
20 0.08
21 0.15
22 0.15
23 0.15
24 0.15
25 0.15
26 0.15
27 0.15
28 0.45
29 0.45
3 -0.57
30 0.45
4 -0.53
5 -0.53
6 0.09
7 -0.01
8 0.08
9 0.47

> <PUBCHEM_EFFECTIVE_ROTOR_COUNT>
1

> <PUBCHEM_PHARMACOPHORE_FEATURES>
8
1 1 acceptor
1 2 donor
1 3 acceptor
1 4 donor
1 5 donor
6 1 6 7 8 9 12 rings
6 10 16 17 18 19 20 rings
6 6 8 11 13 14 15 rings

> <PUBCHEM_HEAVY_ATOM_COUNT>
20

> <PUBCHEM_ATOM_DEF_STEREO_COUNT>
0

> <PUBCHEM_ATOM_UDEF_STEREO_COUNT>
0

> <PUBCHEM_BOND_DEF_STEREO_COUNT>
0

> <PUBCHEM_BOND_UDEF_STEREO_COUNT>
0

> <PUBCHEM_ISOTOPIC_ATOM_COUNT>
0

> <PUBCHEM_COMPONENT_COUNT>
1

> <PUBCHEM_CACTVS_TAUTO_COUNT>
24

> <PUBCHEM_CONFORMER_ID>
005094C100000001

> <PUBCHEM_MMFF94_ENERGY>
62.2288

> <PUBCHEM_FEATURE_SELFOVERLAP>
40.625

> <PUBCHEM_SHAPE_FINGERPRINT>
10 15 17968651735852241568
11471102 20 18410011039915055268
11796584 16 16298104272158585042
12011746 2 18408891737046259404
12107183 9 17481158795205446827
12236239 1 17775568632984956433
12596602 18 17346595322179823779
13140716 1 18194963165723870696
13836976 161 18334862748893370556
13862211 1 18410853231726210242
14386348 63 17894634751351534131
15196674 1 18338798901320010860
15375358 24 18040718064813932202
15375462 189 18131630071354825257
15788980 27 15936413342343465497
15961568 22 15936980763574484908
16945 1 18410855465014102696
1813 80 18271540705560145676
19489759 90 16153423943970350949
200 152 18343862212954338993
20279233 1 17821452352412486003
20645477 70 18335980874408649870
21033648 29 18114445830026487037
21065198 48 17988931015991034643
21267235 1 18339929225607664382
21641784 216 18042422273963395132
22224240 67 18342450487532548904
23402539 116 17775565342486457572
23536379 177 15841559565638082980
23557571 272 17095518474807470397
23559900 14 16950281750432500898
26918003 58 18260551134301111081
2748010 2 18121775029009032932
2871803 45 18334013852823096778
335352 9 18411139165358697628
33824 294 18408039594149944154
34797466 226 16226060980367338734
34934 24 18409725188361700594
3545911 37 18410293635509107947
4072396 5 18262223474792275538
42630746 31 18413672409272107838
4340502 62 16949999236168377650
474 4 17772457134984702568
5104073 3 18265892467099301696
542803 24 17418095416598888849
602551 16 16226338113105518851
7495541 125 17095532836967104597
77492 1 17703790323495757877

> <PUBCHEM_SHAPE_MULTIPOLES>
382.24
11.31
1.69
0.91
4.74
0.43
0.01
0.27
0.19
-1.88
-0.02
1.1
-0.03
0.03

> <PUBCHEM_SHAPE_SELFOVERLAP>
856.838

> <PUBCHEM_SHAPE_VOLUME>
201.4

> <PUBCHEM_COORDINATE_TYPE>
2
5
10

> <minimizedAffinity>
-7.41255

> <CNNscore>
0.5448187590

> <CNNaffinity>
4.7502317429

> <CNN_VS>
2.5880153179

> <CNNaffinity_variance>
0.4152729511

$$$$
5280961


 23 25  0  0  0  0  0  0  0  0999 V2000
  -24.9646   -3.9570    9.7225 O   0  0  0  0  0  0  0  0  0  0  0  0
  -20.6683   -3.1017   11.7954 O   0  0  0  0  0  0  0  0  0  0  0  0
  -20.9541   -4.7065    9.7696 O   0  0  0  0  0  0  0  0  0  0  0  0
  -24.5922   -0.9476   13.3766 O   0  0  0  0  0  0  0  0  0  0  0  0
  -22.7850   -3.5704   10.7178 C   0  0  0  0  0  0  0  0  0  0  0  0
  -23.0746   -5.1616    8.7868 C   0  0  0  0  0  0  0  0  0  0  0  0
  -24.1591   -3.3440   10.6477 C   0  0  0  0  0  0  0  0  0  0  0  0
  -22.1612   -4.5028    9.7609 C   0  0  0  0  0  0  0  0  0  0  0  0
  -22.0132   -2.9164   11.6818 C   0  0  0  0  0  0  0  0  0  0  0  0
  -24.3754   -4.8396    8.8499 C   0  0  0  0  0  0  0  0  0  0  0  0
  -24.7692   -2.4623   11.5405 C   0  0  0  0  0  0  0  0  0  0  0  0
  -22.6258   -2.0356   12.5741 C   0  0  0  0  0  0  0  0  0  0  0  0
  -24.0007   -1.8087   12.5037 C   0  0  0  0  0  0  0  0  0  0  0  0
  -20.2250   -3.6862   11.2124 H   0  0  0  0  0  0  0  0  0  0  0  0
  -25.5154   -0.7943   13.3304 H   0  0  0  0  0  0  0  0  0  0  0  0
  -21.2120   -8.9106    5.0287 O   0  0  0  0  0  0  0  0  0  0  0  0
  -22.5881   -6.1425    7.8032 C   0  0  0  0  0  0  0  0  0  0  0  0
  -21.9805   -5.7088    6.6231 C   0  0  0  0  0  0  0  0  0  0  0  0
  -22.7315   -7.5099    8.0476 C   0  0  0  0  0  0  0  0  0  0  0  0
  -21.5185   -6.6383    5.6912 C   0  0  0  0  0  0  0  0  0  0  0  0
  -22.2695   -8.4393    7.1158 C   0  0  0  0  0  0  0  0  0  0  0  0
  -21.6631   -8.0036    5.9375 C   0  0  0  0  0  0  0  0  0  0  0  0
  -20.8047   -8.6179    4.2373 H   0  0  0  0  0  0  0  0  0  0  0  0
  1  7  1  0  0  0
  1 10  1  0  0  0
  2  9  1  0  0  0
  3  8  2  0  0  0
  4 13  1  0  0  0
 16 22  1  0  0  0
  5  7  1  0  0  0
  5  8  1  0  0  0
  5  9  2  0  0  0
  6  8  1  0  0  0
  6 17  1  0  0  0
  6 10  2  0  0  0
  7 11  2  0  0  0
 17 18  1  0  0  0
 17 19  2  0  0  0
  9 12  1  0  0  0
 11 13  1  0  0  0
 12 13  2  0  0  0
 18 20  2  0  0  0
 19 21  1  0  0  0
 20 22  1  0  0  0
 21 22  2  0  0  0
  2 14  1  0  0  0
  4 15  1  0  0  0
 16 23  1  0  0  0
M  END
> <PUBCHEM_COMPOUND_CID>
5280961

> <PUBCHEM_CONFORMER_RMSD>
0.6

> <PUBCHEM_CONFORMER_DIVERSEORDER>
1
2

> <PUBCHEM_MMFF94_PARTIAL_CHARGES>
30
1 -0.16
10 0.03
11 0.08
12 -0.07
13 -0.15
14 -0.15
15 0.08
16 -0.15
17 -0.15
18 -0.15
19 -0.15
2 -0.53
20 0.08
21 0.15
22 0.15
23 0.15
24 0.15
25 0.15
26 0.15
27 0.15
28 0.45
29 0.45
3 -0.57
30 0.45
4 -0.53
5 -0.53
6 0.09
7 -0.01
8 0.08
9 0.47

> <PUBCHEM_EFFECTIVE_ROTOR_COUNT>
1

> <PUBCHEM_PHARMACOPHORE_FEATURES>
8
1 1 acceptor
1 2 donor
1 3 acceptor
1 4 donor
1 5 donor
6 1 6 7 8 9 12 rings
6 10 16 17 18 19 20 rings
6 6 8 11 13 14 15 rings

> <PUBCHEM_HEAVY_ATOM_COUNT>
20

> <PUBCHEM_ATOM_DEF_STEREO_COUNT>
0

> <PUBCHEM_ATOM_UDEF_STEREO_COUNT>
0

> <PUBCHEM_BOND_DEF_STEREO_COUNT>
0

> <PUBCHEM_BOND_UDEF_STEREO_COUNT>
0

> <PUBCHEM_ISOTOPIC_ATOM_COUNT>
0

> <PUBCHEM_COMPONENT_COUNT>
1

> <PUBCHEM_CACTVS_TAUTO_COUNT>
24

> <PUBCHEM_CONFORMER_ID>
005094C100000001

> <PUBCHEM_MMFF94_ENERGY>
62.2288

> <PUBCHEM_FEATURE_SELFOVERLAP>
40.625

> <PUBCHEM_SHAPE_FINGERPRINT>
10 15 17968651735852241568
11471102 20 18410011039915055268
11796584 16 16298104272158585042
12011746 2 18408891737046259404
12107183 9 17481158795205446827
12236239 1 17775568632984956433
12596602 18 17346595322179823779
13140716 1 18194963165723870696
13836976 161 18334862748893370556
13862211 1 18410853231726210242
14386348 63 17894634751351534131
15196674 1 18338798901320010860
15375358 24 18040718064813932202
15375462 189 18131630071354825257
15788980 27 15936413342343465497
15961568 22 15936980763574484908
16945 1 18410855465014102696
1813 80 18271540705560145676
19489759 90 16153423943970350949
200 152 18343862212954338993
20279233 1 17821452352412486003
20645477 70 18335980874408649870
21033648 29 18114445830026487037
21065198 48 17988931015991034643
21267235 1 18339929225607664382
21641784 216 18042422273963395132
22224240 67 18342450487532548904
23402539 116 17775565342486457572
23536379 177 15841559565638082980
23557571 272 17095518474807470397
23559900 14 16950281750432500898
26918003 58 18260551134301111081
2748010 2 18121775029009032932
2871803 45 18334013852823096778
335352 9 18411139165358697628
33824 294 18408039594149944154
34797466 226 16226060980367338734
34934 24 18409725188361700594
3545911 37 18410293635509107947
4072396 5 18262223474792275538
42630746 31 18413672409272107838
4340502 62 16949999236168377650
474 4 17772457134984702568
5104073 3 18265892467099301696
542803 24 17418095416598888849
602551 16 16226338113105518851
7495541 125 17095532836967104597
77492 1 17703790323495757877

> <PUBCHEM_SHAPE_MULTIPOLES>
382.24
11.31
1.69
0.91
4.74
0.43
0.01
0.27
0.19
-1.88
-0.02
1.1
-0.03
0.03

> <PUBCHEM_SHAPE_SELFOVERLAP>
856.838

> <PUBCHEM_SHAPE_VOLUME>
201.4

> <PUBCHEM_COORDINATE_TYPE>
2
5
10

> <minimizedAffinity>
-4.99112

> <CNNscore>
0.5415465236

> <CNNaffinity>
4.4580640793

> <CNN_VS>
2.4142491817

> <CNNaffinity_variance>
0.1312321126

$$$$
5280961


 23 25  0  0  0  0  0  0  0  0999 V2000
  -19.6787   -3.7973   10.2404 O   0  0  0  0  0  0  0  0  0  0  0  0
  -20.5979   -2.1627   14.7092 O   0  0  0  0  0  0  0  0  0  0  0  0
  -19.0767   -0.8837   13.0326 O   0  0  0  0  0  0  0  0  0  0  0  0
  -22.5317   -6.2147   13.1669 O   0  0  0  0  0  0  0  0  0  0  0  0
  -20.1003   -2.9266   12.4664 C   0  0  0  0  0  0  0  0  0  0  0  0
  -18.5884   -1.7162   10.8560 C   0  0  0  0  0  0  0  0  0  0  0  0
  -20.2787   -3.8860   11.4703 C   0  0  0  0  0  0  0  0  0  0  0  0
  -19.2358   -1.7631   12.1960 C   0  0  0  0  0  0  0  0  0  0  0  0
  -20.7382   -3.0687   13.7015 C   0  0  0  0  0  0  0  0  0  0  0  0
  -18.8588   -2.7197   10.0076 C   0  0  0  0  0  0  0  0  0  0  0  0
  -21.0959   -4.9926   11.7033 C   0  0  0  0  0  0  0  0  0  0  0  0
  -21.5546   -4.1767   13.9324 C   0  0  0  0  0  0  0  0  0  0  0  0
  -21.7334   -5.1365   12.9356 C   0  0  0  0  0  0  0  0  0  0  0  0
  -20.0571   -1.4072   14.5879 H   0  0  0  0  0  0  0  0  0  0  0  0
  -22.6527   -6.8601   12.4984 H   0  0  0  0  0  0  0  0  0  0  0  0
  -15.0848    2.4335    9.3886 O   0  0  0  0  0  0  0  0  0  0  0  0
  -17.6715   -0.6309   10.4713 C   0  0  0  0  0  0  0  0  0  0  0  0
  -18.1667    0.5164    9.8481 C   0  0  0  0  0  0  0  0  0  0  0  0
  -16.3039   -0.7447   10.7293 C   0  0  0  0  0  0  0  0  0  0  0  0
  -17.2981    1.5455    9.4843 C   0  0  0  0  0  0  0  0  0  0  0  0
  -15.4354    0.2843   10.3657 C   0  0  0  0  0  0  0  0  0  0  0  0
  -15.9323    1.4294    9.7430 C   0  0  0  0  0  0  0  0  0  0  0  0
  -15.4187    3.2026    8.9704 H   0  0  0  0  0  0  0  0  0  0  0  0
  1  7  1  0  0  0
  1 10  1  0  0  0
  2  9  1  0  0  0
  3  8  2  0  0  0
  4 13  1  0  0  0
 16 22  1  0  0  0
  5  7  1  0  0  0
  5  8  1  0  0  0
  5  9  2  0  0  0
  6  8  1  0  0  0
  6 17  1  0  0  0
  6 10  2  0  0  0
  7 11  2  0  0  0
 17 18  1  0  0  0
 17 19  2  0  0  0
  9 12  1  0  0  0
 11 13  1  0  0  0
 12 13  2  0  0  0
 18 20  2  0  0  0
 19 21  1  0  0  0
 20 22  1  0  0  0
 21 22  2  0  0  0
  2 14  1  0  0  0
  4 15  1  0  0  0
 16 23  1  0  0  0
M  END
> <PUBCHEM_COMPOUND_CID>
5280961

> <PUBCHEM_CONFORMER_RMSD>
0.6

> <PUBCHEM_CONFORMER_DIVERSEORDER>
1
2

> <PUBCHEM_MMFF94_PARTIAL_CHARGES>
30
1 -0.16
10 0.03
11 0.08
12 -0.07
13 -0.15
14 -0.15
15 0.08
16 -0.15
17 -0.15
18 -0.15
19 -0.15
2 -0.53
20 0.08
21 0.15
22 0.15
23 0.15
24 0.15
25 0.15
26 0.15
27 0.15
28 0.45
29 0.45
3 -0.57
30 0.45
4 -0.53
5 -0.53
6 0.09
7 -0.01
8 0.08
9 0.47

> <PUBCHEM_EFFECTIVE_ROTOR_COUNT>
1

> <PUBCHEM_PHARMACOPHORE_FEATURES>
8
1 1 acceptor
1 2 donor
1 3 acceptor
1 4 donor
1 5 donor
6 1 6 7 8 9 12 rings
6 10 16 17 18 19 20 rings
6 6 8 11 13 14 15 rings

> <PUBCHEM_HEAVY_ATOM_COUNT>
20

> <PUBCHEM_ATOM_DEF_STEREO_COUNT>
0

> <PUBCHEM_ATOM_UDEF_STEREO_COUNT>
0

> <PUBCHEM_BOND_DEF_STEREO_COUNT>
0

> <PUBCHEM_BOND_UDEF_STEREO_COUNT>
0

> <PUBCHEM_ISOTOPIC_ATOM_COUNT>
0

> <PUBCHEM_COMPONENT_COUNT>
1

> <PUBCHEM_CACTVS_TAUTO_COUNT>
24

> <PUBCHEM_CONFORMER_ID>
005094C100000001

> <PUBCHEM_MMFF94_ENERGY>
62.2288

> <PUBCHEM_FEATURE_SELFOVERLAP>
40.625

> <PUBCHEM_SHAPE_FINGERPRINT>
10 15 17968651735852241568
11471102 20 18410011039915055268
11796584 16 16298104272158585042
12011746 2 18408891737046259404
12107183 9 17481158795205446827
12236239 1 17775568632984956433
12596602 18 17346595322179823779
13140716 1 18194963165723870696
13836976 161 18334862748893370556
13862211 1 18410853231726210242
14386348 63 17894634751351534131
15196674 1 18338798901320010860
15375358 24 18040718064813932202
15375462 189 18131630071354825257
15788980 27 15936413342343465497
15961568 22 15936980763574484908
16945 1 18410855465014102696
1813 80 18271540705560145676
19489759 90 16153423943970350949
200 152 18343862212954338993
20279233 1 17821452352412486003
20645477 70 18335980874408649870
21033648 29 18114445830026487037
21065198 48 17988931015991034643
21267235 1 18339929225607664382
21641784 216 18042422273963395132
22224240 67 18342450487532548904
23402539 116 17775565342486457572
23536379 177 15841559565638082980
23557571 272 17095518474807470397
23559900 14 16950281750432500898
26918003 58 18260551134301111081
2748010 2 18121775029009032932
2871803 45 18334013852823096778
335352 9 18411139165358697628
33824 294 18408039594149944154
34797466 226 16226060980367338734
34934 24 18409725188361700594
3545911 37 18410293635509107947
4072396 5 18262223474792275538
42630746 31 18413672409272107838
4340502 62 16949999236168377650
474 4 17772457134984702568
5104073 3 18265892467099301696
542803 24 17418095416598888849
602551 16 16226338113105518851
7495541 125 17095532836967104597
77492 1 17703790323495757877

> <PUBCHEM_SHAPE_MULTIPOLES>
382.24
11.31
1.69
0.91
4.74
0.43
0.01
0.27
0.19
-1.88
-0.02
1.1
-0.03
0.03

> <PUBCHEM_SHAPE_SELFOVERLAP>
856.838

> <PUBCHEM_SHAPE_VOLUME>
201.4

> <PUBCHEM_COORDINATE_TYPE>
2
5
10

> <minimizedAffinity>
-2.17313

> <CNNscore>
0.5364149213

> <CNNaffinity>
4.5709962845

> <CNN_VS>
2.4519505501

> <CNNaffinity_variance>
0.1770412028

$$$$
5280961


 23 25  0  0  0  0  0  0  0  0999 V2000
  -22.3263   -2.7111   12.1636 O   0  0  0  0  0  0  0  0  0  0  0  0
  -20.1323   -6.4698   10.0318 O   0  0  0  0  0  0  0  0  0  0  0  0
  -18.8924   -4.2535   10.5897 O   0  0  0  0  0  0  0  0  0  0  0  0
  -24.7094   -6.7192   11.2670 O   0  0  0  0  0  0  0  0  0  0  0  0
  -21.1717   -4.5585   11.0938 C   0  0  0  0  0  0  0  0  0  0  0  0
  -19.9876   -2.3918   11.5918 C   0  0  0  0  0  0  0  0  0  0  0  0
  -22.3122   -3.9840   11.6536 C   0  0  0  0  0  0  0  0  0  0  0  0
  -19.9231   -3.7755   11.0458 C   0  0  0  0  0  0  0  0  0  0  0  0
  -21.2158   -5.8611   10.5899 C   0  0  0  0  0  0  0  0  0  0  0  0
  -21.1628   -1.9839   12.0942 C   0  0  0  0  0  0  0  0  0  0  0  0
  -23.5031   -4.7085   11.7133 C   0  0  0  0  0  0  0  0  0  0  0  0
  -22.4082   -6.5836   10.6501 C   0  0  0  0  0  0  0  0  0  0  0  0
  -23.5494   -6.0089   11.2106 C   0  0  0  0  0  0  0  0  0  0  0  0
  -19.3159   -6.0134    9.9754 H   0  0  0  0  0  0  0  0  0  0  0  0
  -25.4765   -6.3345   11.6432 H   0  0  0  0  0  0  0  0  0  0  0  0
  -15.5388    1.0503   11.5083 O   0  0  0  0  0  0  0  0  0  0  0  0
  -18.8241   -1.4905   11.5697 C   0  0  0  0  0  0  0  0  0  0  0  0
  -18.4178   -0.8426   12.7380 C   0  0  0  0  0  0  0  0  0  0  0  0
  -18.1223   -1.2816   10.3807 C   0  0  0  0  0  0  0  0  0  0  0  0
  -17.3147    0.0109   12.7175 C   0  0  0  0  0  0  0  0  0  0  0  0
  -17.0192   -0.4283   10.3602 C   0  0  0  0  0  0  0  0  0  0  0  0
  -16.6154    0.2181   11.5285 C   0  0  0  0  0  0  0  0  0  0  0  0
  -15.2675    1.4845   12.2931 H   0  0  0  0  0  0  0  0  0  0  0  0
  1  7  1  0  0  0
  1 10  1  0  0  0
  2  9  1  0  0  0
  3  8  2  0  0  0
  4 13  1  0  0  0
 16 22  1  0  0  0
  5  7  1  0  0  0
  5  8  1  0  0  0
  5  9  2  0  0  0
  6  8  1  0  0  0
  6 17  1  0  0  0
  6 10  2  0  0  0
  7 11  2  0  0  0
 17 18  1  0  0  0
 17 19  2  0  0  0
  9 12  1  0  0  0
 11 13  1  0  0  0
 12 13  2  0  0  0
 18 20  2  0  0  0
 19 21  1  0  0  0
 20 22  1  0  0  0
 21 22  2  0  0  0
  2 14  1  0  0  0
  4 15  1  0  0  0
 16 23  1  0  0  0
M  END
> <PUBCHEM_COMPOUND_CID>
5280961

> <PUBCHEM_CONFORMER_RMSD>
0.6

> <PUBCHEM_CONFORMER_DIVERSEORDER>
1
2

> <PUBCHEM_MMFF94_PARTIAL_CHARGES>
30
1 -0.16
10 0.03
11 0.08
12 -0.07
13 -0.15
14 -0.15
15 0.08
16 -0.15
17 -0.15
18 -0.15
19 -0.15
2 -0.53
20 0.08
21 0.15
22 0.15
23 0.15
24 0.15
25 0.15
26 0.15
27 0.15
28 0.45
29 0.45
3 -0.57
30 0.45
4 -0.53
5 -0.53
6 0.09
7 -0.01
8 0.08
9 0.47

> <PUBCHEM_EFFECTIVE_ROTOR_COUNT>
1

> <PUBCHEM_PHARMACOPHORE_FEATURES>
8
1 1 acceptor
1 2 donor
1 3 acceptor
1 4 donor
1 5 donor
6 1 6 7 8 9 12 rings
6 10 16 17 18 19 20 rings
6 6 8 11 13 14 15 rings

> <PUBCHEM_HEAVY_ATOM_COUNT>
20

> <PUBCHEM_ATOM_DEF_STEREO_COUNT>
0

> <PUBCHEM_ATOM_UDEF_STEREO_COUNT>
0

> <PUBCHEM_BOND_DEF_STEREO_COUNT>
0

> <PUBCHEM_BOND_UDEF_STEREO_COUNT>
0

> <PUBCHEM_ISOTOPIC_ATOM_COUNT>
0

> <PUBCHEM_COMPONENT_COUNT>
1

> <PUBCHEM_CACTVS_TAUTO_COUNT>
24

> <PUBCHEM_CONFORMER_ID>
005094C100000001

> <PUBCHEM_MMFF94_ENERGY>
62.2288

> <PUBCHEM_FEATURE_SELFOVERLAP>
40.625

> <PUBCHEM_SHAPE_FINGERPRINT>
10 15 17968651735852241568
11471102 20 18410011039915055268
11796584 16 16298104272158585042
12011746 2 18408891737046259404
12107183 9 17481158795205446827
12236239 1 17775568632984956433
12596602 18 17346595322179823779
13140716 1 18194963165723870696
13836976 161 18334862748893370556
13862211 1 18410853231726210242
14386348 63 17894634751351534131
15196674 1 18338798901320010860
15375358 24 18040718064813932202
15375462 189 18131630071354825257
15788980 27 15936413342343465497
15961568 22 15936980763574484908
16945 1 18410855465014102696
1813 80 18271540705560145676
19489759 90 16153423943970350949
200 152 18343862212954338993
20279233 1 17821452352412486003
20645477 70 18335980874408649870
21033648 29 18114445830026487037
21065198 48 17988931015991034643
21267235 1 18339929225607664382
21641784 216 18042422273963395132
22224240 67 18342450487532548904
23402539 116 17775565342486457572
23536379 177 15841559565638082980
23557571 272 17095518474807470397
23559900 14 16950281750432500898
26918003 58 18260551134301111081
2748010 2 18121775029009032932
2871803 45 18334013852823096778
335352 9 18411139165358697628
33824 294 18408039594149944154
34797466 226 16226060980367338734
34934 24 18409725188361700594
3545911 37 18410293635509107947
4072396 5 18262223474792275538
42630746 31 18413672409272107838
4340502 62 16949999236168377650
474 4 17772457134984702568
5104073 3 18265892467099301696
542803 24 17418095416598888849
602551 16 16226338113105518851
7495541 125 17095532836967104597
77492 1 17703790323495757877

> <PUBCHEM_SHAPE_MULTIPOLES>
382.24
11.31
1.69
0.91
4.74
0.43
0.01
0.27
0.19
-1.88
-0.02
1.1
-0.03
0.03

> <PUBCHEM_SHAPE_SELFOVERLAP>
856.838

> <PUBCHEM_SHAPE_VOLUME>
201.4

> <PUBCHEM_COORDINATE_TYPE>
2
5
10

> <minimizedAffinity>
-7.09616

> <CNNscore>
0.5347015858

> <CNNaffinity>
4.9137401581

> <CNN_VS>
2.6273846626

> <CNNaffinity_variance>
0.2129424363

$$$$
5280961


 23 25  0  0  0  0  0  0  0  0999 V2000
  -22.2003    3.5674   13.0334 O   0  0  0  0  0  0  0  0  0  0  0  0
  -19.6733   -0.5629   13.2351 O   0  0  0  0  0  0  0  0  0  0  0  0
  -21.8362   -0.3093   11.8144 O   0  0  0  0  0  0  0  0  0  0  0  0
  -18.2308    3.2782   15.6232 O   0  0  0  0  0  0  0  0  0  0  0  0
  -20.9788    1.4711   13.0940 C   0  0  0  0  0  0  0  0  0  0  0  0
  -23.1013    1.7070   11.7584 C   0  0  0  0  0  0  0  0  0  0  0  0
  -21.1480    2.8035   13.4686 C   0  0  0  0  0  0  0  0  0  0  0  0
  -21.9642    0.8486   12.1908 C   0  0  0  0  0  0  0  0  0  0  0  0
  -19.8858    0.7409   13.5681 C   0  0  0  0  0  0  0  0  0  0  0  0
  -23.1232    2.9704   12.2092 C   0  0  0  0  0  0  0  0  0  0  0  0
  -20.2251    3.4136   14.3188 C   0  0  0  0  0  0  0  0  0  0  0  0
  -18.9645    1.3531   14.4190 C   0  0  0  0  0  0  0  0  0  0  0  0
  -19.1335    2.6865   14.7935 C   0  0  0  0  0  0  0  0  0  0  0  0
  -20.2723   -1.0046   12.6659 H   0  0  0  0  0  0  0  0  0  0  0  0
  -18.3431    4.1735   15.8755 H   0  0  0  0  0  0  0  0  0  0  0  0
  -27.2062   -0.2337    8.4371 O   0  0  0  0  0  0  0  0  0  0  0  0
  -24.1748    1.1986   10.8891 C   0  0  0  0  0  0  0  0  0  0  0  0
  -25.1754    0.3804   11.4175 C   0  0  0  0  0  0  0  0  0  0  0  0
  -24.1965    1.5337    9.5337 C   0  0  0  0  0  0  0  0  0  0  0  0
  -26.1934   -0.1008   10.5941 C   0  0  0  0  0  0  0  0  0  0  0  0
  -25.2144    1.0527    8.7104 C   0  0  0  0  0  0  0  0  0  0  0  0
  -26.2128    0.2353    9.2405 C   0  0  0  0  0  0  0  0  0  0  0  0
  -27.8768   -0.7827    8.7931 H   0  0  0  0  0  0  0  0  0  0  0  0
  1  7  1  0  0  0
  1 10  1  0  0  0
  2  9  1  0  0  0
  3  8  2  0  0  0
  4 13  1  0  0  0
 16 22  1  0  0  0
  5  7  1  0  0  0
  5  8  1  0  0  0
  5  9  2  0  0  0
  6  8  1  0  0  0
  6 17  1  0  0  0
  6 10  2  0  0  0
  7 11  2  0  0  0
 17 18  1  0  0  0
 17 19  2  0  0  0
  9 12  1  0  0  0
 11 13  1  0  0  0
 12 13  2  0  0  0
 18 20  2  0  0  0
 19 21  1  0  0  0
 20 22  1  0  0  0
 21 22  2  0  0  0
  2 14  1  0  0  0
  4 15  1  0  0  0
 16 23  1  0  0  0
M  END
> <PUBCHEM_COMPOUND_CID>
5280961

> <PUBCHEM_CONFORMER_RMSD>
0.6

> <PUBCHEM_CONFORMER_DIVERSEORDER>
1
2

> <PUBCHEM_MMFF94_PARTIAL_CHARGES>
30
1 -0.16
10 0.03
11 0.08
12 -0.07
13 -0.15
14 -0.15
15 0.08
16 -0.15
17 -0.15
18 -0.15
19 -0.15
2 -0.53
20 0.08
21 0.15
22 0.15
23 0.15
24 0.15
25 0.15
26 0.15
27 0.15
28 0.45
29 0.45
3 -0.57
30 0.45
4 -0.53
5 -0.53
6 0.09
7 -0.01
8 0.08
9 0.47

> <PUBCHEM_EFFECTIVE_ROTOR_COUNT>
1

> <PUBCHEM_PHARMACOPHORE_FEATURES>
8
1 1 acceptor
1 2 donor
1 3 acceptor
1 4 donor
1 5 donor
6 1 6 7 8 9 12 rings
6 10 16 17 18 19 20 rings
6 6 8 11 13 14 15 rings

> <PUBCHEM_HEAVY_ATOM_COUNT>
20

> <PUBCHEM_ATOM_DEF_STEREO_COUNT>
0

> <PUBCHEM_ATOM_UDEF_STEREO_COUNT>
0

> <PUBCHEM_BOND_DEF_STEREO_COUNT>
0

> <PUBCHEM_BOND_UDEF_STEREO_COUNT>
0

> <PUBCHEM_ISOTOPIC_ATOM_COUNT>
0

> <PUBCHEM_COMPONENT_COUNT>
1

> <PUBCHEM_CACTVS_TAUTO_COUNT>
24

> <PUBCHEM_CONFORMER_ID>
005094C100000001

> <PUBCHEM_MMFF94_ENERGY>
62.2288

> <PUBCHEM_FEATURE_SELFOVERLAP>
40.625

> <PUBCHEM_SHAPE_FINGERPRINT>
10 15 17968651735852241568
11471102 20 18410011039915055268
11796584 16 16298104272158585042
12011746 2 18408891737046259404
12107183 9 17481158795205446827
12236239 1 17775568632984956433
12596602 18 17346595322179823779
13140716 1 18194963165723870696
13836976 161 18334862748893370556
13862211 1 18410853231726210242
14386348 63 17894634751351534131
15196674 1 18338798901320010860
15375358 24 18040718064813932202
15375462 189 18131630071354825257
15788980 27 15936413342343465497
15961568 22 15936980763574484908
16945 1 18410855465014102696
1813 80 18271540705560145676
19489759 90 16153423943970350949
200 152 18343862212954338993
20279233 1 17821452352412486003
20645477 70 18335980874408649870
21033648 29 18114445830026487037
21065198 48 17988931015991034643
21267235 1 18339929225607664382
21641784 216 18042422273963395132
22224240 67 18342450487532548904
23402539 116 17775565342486457572
23536379 177 15841559565638082980
23557571 272 17095518474807470397
23559900 14 16950281750432500898
26918003 58 18260551134301111081
2748010 2 18121775029009032932
2871803 45 18334013852823096778
335352 9 18411139165358697628
33824 294 18408039594149944154
34797466 226 16226060980367338734
34934 24 18409725188361700594
3545911 37 18410293635509107947
4072396 5 18262223474792275538
42630746 31 18413672409272107838
4340502 62 16949999236168377650
474 4 17772457134984702568
5104073 3 18265892467099301696
542803 24 17418095416598888849
602551 16 16226338113105518851
7495541 125 17095532836967104597
77492 1 17703790323495757877

> <PUBCHEM_SHAPE_MULTIPOLES>
382.24
11.31
1.69
0.91
4.74
0.43
0.01
0.27
0.19
-1.88
-0.02
1.1
-0.03
0.03

> <PUBCHEM_SHAPE_SELFOVERLAP>
856.838

> <PUBCHEM_SHAPE_VOLUME>
201.4

> <PUBCHEM_COORDINATE_TYPE>
2
5
10

> <minimizedAffinity>
-4.45604

> <CNNscore>
0.5073401332

> <CNNaffinity>
4.2673215866

> <CNN_VS>
2.1649835110

> <CNNaffinity_variance>
0.2560876906

$$$$
5280961


 23 25  0  0  0  0  0  0  0  0999 V2000
  -26.9533   -2.3666   10.2705 O   0  0  0  0  0  0  0  0  0  0  0  0
  -23.1169   -0.4250   12.5061 O   0  0  0  0  0  0  0  0  0  0  0  0
  -22.9819   -2.6474   11.1631 O   0  0  0  0  0  0  0  0  0  0  0  0
  -27.3426    1.7348   12.6315 O   0  0  0  0  0  0  0  0  0  0  0  0
  -24.9954   -1.4450   11.3694 C   0  0  0  0  0  0  0  0  0  0  0  0
  -24.8809   -3.6226   10.1086 C   0  0  0  0  0  0  0  0  0  0  0  0
  -26.3455   -1.3958   11.0245 C   0  0  0  0  0  0  0  0  0  0  0  0
  -24.1773   -2.5814   10.9072 C   0  0  0  0  0  0  0  0  0  0  0  0
  -24.4291   -0.4261   12.1399 C   0  0  0  0  0  0  0  0  0  0  0  0
  -26.1860   -3.4310    9.8634 C   0  0  0  0  0  0  0  0  0  0  0  0
  -27.1370   -0.3274   11.4475 C   0  0  0  0  0  0  0  0  0  0  0  0
  -25.2229    0.6411   12.5624 C   0  0  0  0  0  0  0  0  0  0  0  0
  -26.5738    0.6906   12.2169 C   0  0  0  0  0  0  0  0  0  0  0  0
  -22.5555   -1.1263   12.2396 H   0  0  0  0  0  0  0  0  0  0  0  0
  -28.2500    1.7694   12.4002 H   0  0  0  0  0  0  0  0  0  0  0  0
  -22.2483   -8.2280    8.2360 O   0  0  0  0  0  0  0  0  0  0  0  0
  -24.1913   -4.8272    9.6190 C   0  0  0  0  0  0  0  0  0  0  0  0
  -24.1647   -5.9849   10.3994 C   0  0  0  0  0  0  0  0  0  0  0  0
  -23.5627   -4.8166    8.3721 C   0  0  0  0  0  0  0  0  0  0  0  0
  -23.5120   -7.1270    9.9351 C   0  0  0  0  0  0  0  0  0  0  0  0
  -22.9102   -5.9585    7.9079 C   0  0  0  0  0  0  0  0  0  0  0  0
  -22.8846   -7.1138    8.6893 C   0  0  0  0  0  0  0  0  0  0  0  0
  -22.2311   -9.0040    8.7610 H   0  0  0  0  0  0  0  0  0  0  0  0
  1  7  1  0  0  0
  1 10  1  0  0  0
  2  9  1  0  0  0
  3  8  2  0  0  0
  4 13  1  0  0  0
 16 22  1  0  0  0
  5  7  1  0  0  0
  5  8  1  0  0  0
  5  9  2  0  0  0
  6  8  1  0  0  0
  6 17  1  0  0  0
  6 10  2  0  0  0
  7 11  2  0  0  0
 17 18  1  0  0  0
 17 19  2  0  0  0
  9 12  1  0  0  0
 11 13  1  0  0  0
 12 13  2  0  0  0
 18 20  2  0  0  0
 19 21  1  0  0  0
 20 22  1  0  0  0
 21 22  2  0  0  0
  2 14  1  0  0  0
  4 15  1  0  0  0
 16 23  1  0  0  0
M  END
> <PUBCHEM_COMPOUND_CID>
5280961

> <PUBCHEM_CONFORMER_RMSD>
0.6

> <PUBCHEM_CONFORMER_DIVERSEORDER>
1
2

> <PUBCHEM_MMFF94_PARTIAL_CHARGES>
30
1 -0.16
10 0.03
11 0.08
12 -0.07
13 -0.15
14 -0.15
15 0.08
16 -0.15
17 -0.15
18 -0.15
19 -0.15
2 -0.53
20 0.08
21 0.15
22 0.15
23 0.15
24 0.15
25 0.15
26 0.15
27 0.15
28 0.45
29 0.45
3 -0.57
30 0.45
4 -0.53
5 -0.53
6 0.09
7 -0.01
8 0.08
9 0.47

> <PUBCHEM_EFFECTIVE_ROTOR_COUNT>
1

> <PUBCHEM_PHARMACOPHORE_FEATURES>
8
1 1 acceptor
1 2 donor
1 3 acceptor
1 4 donor
1 5 donor
6 1 6 7 8 9 12 rings
6 10 16 17 18 19 20 rings
6 6 8 11 13 14 15 rings

> <PUBCHEM_HEAVY_ATOM_COUNT>
20

> <PUBCHEM_ATOM_DEF_STEREO_COUNT>
0

> <PUBCHEM_ATOM_UDEF_STEREO_COUNT>
0

> <PUBCHEM_BOND_DEF_STEREO_COUNT>
0

> <PUBCHEM_BOND_UDEF_STEREO_COUNT>
0

> <PUBCHEM_ISOTOPIC_ATOM_COUNT>
0

> <PUBCHEM_COMPONENT_COUNT>
1

> <PUBCHEM_CACTVS_TAUTO_COUNT>
24

> <PUBCHEM_CONFORMER_ID>
005094C100000001

> <PUBCHEM_MMFF94_ENERGY>
62.2288

> <PUBCHEM_FEATURE_SELFOVERLAP>
40.625

> <PUBCHEM_SHAPE_FINGERPRINT>
10 15 17968651735852241568
11471102 20 18410011039915055268
11796584 16 16298104272158585042
12011746 2 18408891737046259404
12107183 9 17481158795205446827
12236239 1 17775568632984956433
12596602 18 17346595322179823779
13140716 1 18194963165723870696
13836976 161 18334862748893370556
13862211 1 18410853231726210242
14386348 63 17894634751351534131
15196674 1 18338798901320010860
15375358 24 18040718064813932202
15375462 189 18131630071354825257
15788980 27 15936413342343465497
15961568 22 15936980763574484908
16945 1 18410855465014102696
1813 80 18271540705560145676
19489759 90 16153423943970350949
200 152 18343862212954338993
20279233 1 17821452352412486003
20645477 70 18335980874408649870
21033648 29 18114445830026487037
21065198 48 17988931015991034643
21267235 1 18339929225607664382
21641784 216 18042422273963395132
22224240 67 18342450487532548904
23402539 116 17775565342486457572
23536379 177 15841559565638082980
23557571 272 17095518474807470397
23559900 14 16950281750432500898
26918003 58 18260551134301111081
2748010 2 18121775029009032932
2871803 45 18334013852823096778
335352 9 18411139165358697628
33824 294 18408039594149944154
34797466 226 16226060980367338734
34934 24 18409725188361700594
3545911 37 18410293635509107947
4072396 5 18262223474792275538
42630746 31 18413672409272107838
4340502 62 16949999236168377650
474 4 17772457134984702568
5104073 3 18265892467099301696
542803 24 17418095416598888849
602551 16 16226338113105518851
7495541 125 17095532836967104597
77492 1 17703790323495757877

> <PUBCHEM_SHAPE_MULTIPOLES>
382.24
11.31
1.69
0.91
4.74
0.43
0.01
0.27
0.19
-1.88
-0.02
1.1
-0.03
0.03

> <PUBCHEM_SHAPE_SELFOVERLAP>
856.838

> <PUBCHEM_SHAPE_VOLUME>
201.4

> <PUBCHEM_COORDINATE_TYPE>
2
5
10

> <minimizedAffinity>
-4.16695

> <CNNscore>
0.4997405708

> <CNNaffinity>
4.3077726364

> <CNN_VS>
2.1527688503

> <CNNaffinity_variance>
0.1935608685

$$$$
5280961


 23 25  0  0  0  0  0  0  0  0999 V2000
  -23.0466   -1.2557   11.7203 O   0  0  0  0  0  0  0  0  0  0  0  0
  -27.4172    0.8068   12.0811 O   0  0  0  0  0  0  0  0  0  0  0  0
  -27.0971   -1.7216   11.5656 O   0  0  0  0  0  0  0  0  0  0  0  0
  -23.4709    3.3642   12.7321 O   0  0  0  0  0  0  0  0  0  0  0  0
  -25.2631   -0.2812   11.8877 C   0  0  0  0  0  0  0  0  0  0  0  0
  -24.9470   -2.7194   11.3401 C   0  0  0  0  0  0  0  0  0  0  0  0
  -23.8730   -0.1835   11.9388 C   0  0  0  0  0  0  0  0  0  0  0  0
  -25.8806   -1.5868   11.5904 C   0  0  0  0  0  0  0  0  0  0  0  0
  -26.0560    0.8458   12.1199 C   0  0  0  0  0  0  0  0  0  0  0  0
  -23.6329   -2.4622   11.4235 C   0  0  0  0  0  0  0  0  0  0  0  0
  -23.2679    1.0412   12.2228 C   0  0  0  0  0  0  0  0  0  0  0  0
  -25.4484    2.0697   12.4030 C   0  0  0  0  0  0  0  0  0  0  0  0
  -24.0575    2.1674   12.4546 C   0  0  0  0  0  0  0  0  0  0  0  0
  -27.8576    0.0012   11.8938 H   0  0  0  0  0  0  0  0  0  0  0  0
  -22.5369    3.4313   12.7670 H   0  0  0  0  0  0  0  0  0  0  0  0
  -26.7990   -7.8648   10.0199 O   0  0  0  0  0  0  0  0  0  0  0  0
  -25.4307   -4.0659   10.9945 C   0  0  0  0  0  0  0  0  0  0  0  0
  -25.6726   -5.0030   12.0012 C   0  0  0  0  0  0  0  0  0  0  0  0
  -25.6504   -4.4101    9.6591 C   0  0  0  0  0  0  0  0  0  0  0  0
  -26.1319   -6.2788   11.6740 C   0  0  0  0  0  0  0  0  0  0  0  0
  -26.1097   -5.6857    9.3320 C   0  0  0  0  0  0  0  0  0  0  0  0
  -26.3504   -6.6203   10.3393 C   0  0  0  0  0  0  0  0  0  0  0  0
  -26.9606   -8.4925   10.6965 H   0  0  0  0  0  0  0  0  0  0  0  0
  1  7  1  0  0  0
  1 10  1  0  0  0
  2  9  1  0  0  0
  3  8  2  0  0  0
  4 13  1  0  0  0
 16 22  1  0  0  0
  5  7  1  0  0  0
  5  8  1  0  0  0
  5  9  2  0  0  0
  6  8  1  0  0  0
  6 17  1  0  0  0
  6 10  2  0  0  0
  7 11  2  0  0  0
 17 18  1  0  0  0
 17 19  2  0  0  0
  9 12  1  0  0  0
 11 13  1  0  0  0
 12 13  2  0  0  0
 18 20  2  0  0  0
 19 21  1  0  0  0
 20 22  1  0  0  0
 21 22  2  0  0  0
  2 14  1  0  0  0
  4 15  1  0  0  0
 16 23  1  0  0  0
M  END
> <PUBCHEM_COMPOUND_CID>
5280961

> <PUBCHEM_CONFORMER_RMSD>
0.6

> <PUBCHEM_CONFORMER_DIVERSEORDER>
1
2

> <PUBCHEM_MMFF94_PARTIAL_CHARGES>
30
1 -0.16
10 0.03
11 0.08
12 -0.07
13 -0.15
14 -0.15
15 0.08
16 -0.15
17 -0.15
18 -0.15
19 -0.15
2 -0.53
20 0.08
21 0.15
22 0.15
23 0.15
24 0.15
25 0.15
26 0.15
27 0.15
28 0.45
29 0.45
3 -0.57
30 0.45
4 -0.53
5 -0.53
6 0.09
7 -0.01
8 0.08
9 0.47

> <PUBCHEM_EFFECTIVE_ROTOR_COUNT>
1

> <PUBCHEM_PHARMACOPHORE_FEATURES>
8
1 1 acceptor
1 2 donor
1 3 acceptor
1 4 donor
1 5 donor
6 1 6 7 8 9 12 rings
6 10 16 17 18 19 20 rings
6 6 8 11 13 14 15 rings

> <PUBCHEM_HEAVY_ATOM_COUNT>
20

> <PUBCHEM_ATOM_DEF_STEREO_COUNT>
0

> <PUBCHEM_ATOM_UDEF_STEREO_COUNT>
0

> <PUBCHEM_BOND_DEF_STEREO_COUNT>
0

> <PUBCHEM_BOND_UDEF_STEREO_COUNT>
0

> <PUBCHEM_ISOTOPIC_ATOM_COUNT>
0

> <PUBCHEM_COMPONENT_COUNT>
1

> <PUBCHEM_CACTVS_TAUTO_COUNT>
24

> <PUBCHEM_CONFORMER_ID>
005094C100000001

> <PUBCHEM_MMFF94_ENERGY>
62.2288

> <PUBCHEM_FEATURE_SELFOVERLAP>
40.625

> <PUBCHEM_SHAPE_FINGERPRINT>
10 15 17968651735852241568
11471102 20 18410011039915055268
11796584 16 16298104272158585042
12011746 2 18408891737046259404
12107183 9 17481158795205446827
12236239 1 17775568632984956433
12596602 18 17346595322179823779
13140716 1 18194963165723870696
13836976 161 18334862748893370556
13862211 1 18410853231726210242
14386348 63 17894634751351534131
15196674 1 18338798901320010860
15375358 24 18040718064813932202
15375462 189 18131630071354825257
15788980 27 15936413342343465497
15961568 22 15936980763574484908
16945 1 18410855465014102696
1813 80 18271540705560145676
19489759 90 16153423943970350949
200 152 18343862212954338993
20279233 1 17821452352412486003
20645477 70 18335980874408649870
21033648 29 18114445830026487037
21065198 48 17988931015991034643
21267235 1 18339929225607664382
21641784 216 18042422273963395132
22224240 67 18342450487532548904
23402539 116 17775565342486457572
23536379 177 15841559565638082980
23557571 272 17095518474807470397
23559900 14 16950281750432500898
26918003 58 18260551134301111081
2748010 2 18121775029009032932
2871803 45 18334013852823096778
335352 9 18411139165358697628
33824 294 18408039594149944154
34797466 226 16226060980367338734
34934 24 18409725188361700594
3545911 37 18410293635509107947
4072396 5 18262223474792275538
42630746 31 18413672409272107838
4340502 62 16949999236168377650
474 4 17772457134984702568
5104073 3 18265892467099301696
542803 24 17418095416598888849
602551 16 16226338113105518851
7495541 125 17095532836967104597
77492 1 17703790323495757877

> <PUBCHEM_SHAPE_MULTIPOLES>
382.24
11.31
1.69
0.91
4.74
0.43
0.01
0.27
0.19
-1.88
-0.02
1.1
-0.03
0.03

> <PUBCHEM_SHAPE_SELFOVERLAP>
856.838

> <PUBCHEM_SHAPE_VOLUME>
201.4

> <PUBCHEM_COORDINATE_TYPE>
2
5
10

> <minimizedAffinity>
-3.58262

> <CNNscore>
0.4988504052

> <CNNaffinity>
4.1716170311

> <CNN_VS>
2.0810129642

> <CNNaffinity_variance>
0.1586771607

$$$$
