5280961


 23 25  0  0  0  0  0  0  0  0999 V2000
  -18.4531    2.2014   13.3205 O   0  0  0  0  0  0  0  0  0  0  0  0
  -18.1078   -1.9592   10.8593 O   0  0  0  0  0  0  0  0  0  0  0  0
  -18.8696   -1.8575   13.3433 O   0  0  0  0  0  0  0  0  0  0  0  0
  -17.1089    2.1832    8.7663 O   0  0  0  0  0  0  0  0  0  0  0  0
  -18.2993    0.0852   12.1420 C   0  0  0  0  0  0  0  0  0  0  0  0
  -18.9895    0.1843   14.5623 C   0  0  0  0  0  0  0  0  0  0  0  0
  -18.1851    1.4741   12.1892 C   0  0  0  0  0  0  0  0  0  0  0  0
  -18.7282   -0.6414   13.3512 C   0  0  0  0  0  0  0  0  0  0  0  0
  -18.0138   -0.6038   10.9603 C   0  0  0  0  0  0  0  0  0  0  0  0
  -18.8315    1.5115   14.4467 C   0  0  0  0  0  0  0  0  0  0  0  0
  -17.7851    2.1820   11.0553 C   0  0  0  0  0  0  0  0  0  0  0  0
  -17.6133    0.1063    9.8277 C   0  0  0  0  0  0  0  0  0  0  0  0
  -17.4994    1.4961    9.8748 C   0  0  0  0  0  0  0  0  0  0  0  0
  -18.3738   -2.4668   11.6006 H   0  0  0  0  0  0  0  0  0  0  0  0
  -17.0320    3.1165    8.7965 H   0  0  0  0  0  0  0  0  0  0  0  0
  -20.5008   -2.1203   19.4667 O   0  0  0  0  0  0  0  0  0  0  0  0
  -19.3857   -0.4182   15.8455 C   0  0  0  0  0  0  0  0  0  0  0  0
  -19.9533   -1.6938   15.8747 C   0  0  0  0  0  0  0  0  0  0  0  0
  -19.1942    0.2832   17.0376 C   0  0  0  0  0  0  0  0  0  0  0  0
  -20.3280   -2.2654   17.0907 C   0  0  0  0  0  0  0  0  0  0  0  0
  -19.5687   -0.2884   18.2535 C   0  0  0  0  0  0  0  0  0  0  0  0
  -20.1358   -1.5626   18.2802 C   0  0  0  0  0  0  0  0  0  0  0  0
  -20.8816   -2.9762   19.4846 H   0  0  0  0  0  0  0  0  0  0  0  0
  1  7  1  0  0  0
  1 10  1  0  0  0
  2  9  1  0  0  0
  3  8  2  0  0  0
  4 13  1  0  0  0
 16 22  1  0  0  0
  5  7  1  0  0  0
  5  8  1  0  0  0
  5  9  2  0  0  0
  6  8  1  0  0  0
  6 17  1  0  0  0
  6 10  2  0  0  0
  7 11  2  0  0  0
 17 18  1  0  0  0
 17 19  2  0  0  0
  9 12  1  0  0  0
 11 13  1  0  0  0
 12 13  2  0  0  0
 18 20  2  0  0  0
 19 21  1  0  0  0
 20 22  1  0  0  0
 21 22  2  0  0  0
  2 14  1  0  0  0
  4 15  1  0  0  0
 16 23  1  0  0  0
M  END
> <PUBCHEM_COMPOUND_CID>
5280961

> <PUBCHEM_CONFORMER_RMSD>
0.6

> <PUBCHEM_CONFORMER_DIVERSEORDER>
1
2

> <PUBCHEM_MMFF94_PARTIAL_CHARGES>
30
1 -0.16
10 0.03
11 0.08
12 -0.07
13 -0.15
14 -0.15
15 0.08
16 -0.15
17 -0.15
18 -0.15
19 -0.15
2 -0.53
20 0.08
21 0.15
22 0.15
23 0.15
24 0.15
25 0.15
26 0.15
27 0.15
28 0.45
29 0.45
3 -0.57
30 0.45
4 -0.53
5 -0.53
6 0.09
7 -0.01
8 0.08
9 0.47

> <PUBCHEM_EFFECTIVE_ROTOR_COUNT>
1

> <PUBCHEM_PHARMACOPHORE_FEATURES>
8
1 1 acceptor
1 2 donor
1 3 acceptor
1 4 donor
1 5 donor
6 1 6 7 8 9 12 rings
6 10 16 17 18 19 20 rings
6 6 8 11 13 14 15 rings

> <PUBCHEM_HEAVY_ATOM_COUNT>
20

> <PUBCHEM_ATOM_DEF_STEREO_COUNT>
0

> <PUBCHEM_ATOM_UDEF_STEREO_COUNT>
0

> <PUBCHEM_BOND_DEF_STEREO_COUNT>
0

> <PUBCHEM_BOND_UDEF_STEREO_COUNT>
0

> <PUBCHEM_ISOTOPIC_ATOM_COUNT>
0

> <PUBCHEM_COMPONENT_COUNT>
1

> <PUBCHEM_CACTVS_TAUTO_COUNT>
24

> <PUBCHEM_CONFORMER_ID>
005094C100000001

> <PUBCHEM_MMFF94_ENERGY>
62.2288

> <PUBCHEM_FEATURE_SELFOVERLAP>
40.625

> <PUBCHEM_SHAPE_FINGERPRINT>
10 15 17968651735852241568
11471102 20 18410011039915055268
11796584 16 16298104272158585042
12011746 2 18408891737046259404
12107183 9 17481158795205446827
12236239 1 17775568632984956433
12596602 18 17346595322179823779
13140716 1 18194963165723870696
13836976 161 18334862748893370556
13862211 1 18410853231726210242
14386348 63 17894634751351534131
15196674 1 18338798901320010860
15375358 24 18040718064813932202
15375462 189 18131630071354825257
15788980 27 15936413342343465497
15961568 22 15936980763574484908
16945 1 18410855465014102696
1813 80 18271540705560145676
19489759 90 16153423943970350949
200 152 18343862212954338993
20279233 1 17821452352412486003
20645477 70 18335980874408649870
21033648 29 18114445830026487037
21065198 48 17988931015991034643
21267235 1 18339929225607664382
21641784 216 18042422273963395132
22224240 67 18342450487532548904
23402539 116 17775565342486457572
23536379 177 15841559565638082980
23557571 272 17095518474807470397
23559900 14 16950281750432500898
26918003 58 18260551134301111081
2748010 2 18121775029009032932
2871803 45 18334013852823096778
335352 9 18411139165358697628
33824 294 18408039594149944154
34797466 226 16226060980367338734
34934 24 18409725188361700594
3545911 37 18410293635509107947
4072396 5 18262223474792275538
42630746 31 18413672409272107838
4340502 62 16949999236168377650
474 4 17772457134984702568
5104073 3 18265892467099301696
542803 24 17418095416598888849
602551 16 16226338113105518851
7495541 125 17095532836967104597
77492 1 17703790323495757877

> <PUBCHEM_SHAPE_MULTIPOLES>
382.24
11.31
1.69
0.91
4.74
0.43
0.01
0.27
0.19
-1.88
-0.02
1.1
-0.03
0.03

> <PUBCHEM_SHAPE_SELFOVERLAP>
856.838

> <PUBCHEM_SHAPE_VOLUME>
201.4

> <PUBCHEM_COORDINATE_TYPE>
2
5
10

> <minimizedAffinity>
-8.69045

> <CNNscore>
0.7067466378

> <CNNaffinity>
5.3900527954

> <CNN_VS>
3.8094017506

> <CNNaffinity_variance>
0.1238087192

$$$$
