5280443


 23 25  0  0  0  0  0  0  0  0999 V2000
  -18.4081   -0.4422   14.0816 O   0  0  0  0  0  0  0  0  0  0  0  0
  -18.0173   -2.2512    9.6016 O   0  0  0  0  0  0  0  0  0  0  0  0
  -19.5991   -3.2879   11.4202 O   0  0  0  0  0  0  0  0  0  0  0  0
  -15.4900    1.5506   10.9108 O   0  0  0  0  0  0  0  0  0  0  0  0
  -18.2549   -1.3929   11.8516 C   0  0  0  0  0  0  0  0  0  0  0  0
  -17.8904   -0.4499   12.8111 C   0  0  0  0  0  0  0  0  0  0  0  0
  -19.3400   -1.4114   14.4209 C   0  0  0  0  0  0  0  0  0  0  0  0
  -19.2362   -2.4279   12.2108 C   0  0  0  0  0  0  0  0  0  0  0  0
  -19.7653   -2.3752   13.5888 C   0  0  0  0  0  0  0  0  0  0  0  0
  -17.6943   -1.3528   10.5730 C   0  0  0  0  0  0  0  0  0  0  0  0
  -16.9603    0.5411   12.4966 C   0  0  0  0  0  0  0  0  0  0  0  0
  -16.3982    0.5849   11.2205 C   0  0  0  0  0  0  0  0  0  0  0  0
  -16.7646   -0.3601   10.2610 C   0  0  0  0  0  0  0  0  0  0  0  0
  -18.6383   -2.9301    9.7790 H   0  0  0  0  0  0  0  0  0  0  0  0
  -15.2434    2.1855   11.5543 H   0  0  0  0  0  0  0  0  0  0  0  0
  -21.1987   -1.0418   19.7241 O   0  0  0  0  0  0  0  0  0  0  0  0
  -19.8266   -1.3147   15.8117 C   0  0  0  0  0  0  0  0  0  0  0  0
  -19.7470   -0.1017   16.5002 C   0  0  0  0  0  0  0  0  0  0  0  0
  -20.3697   -2.4353   16.4446 C   0  0  0  0  0  0  0  0  0  0  0  0
  -20.2073   -0.0102   17.8138 C   0  0  0  0  0  0  0  0  0  0  0  0
  -20.8303   -2.3437   17.7581 C   0  0  0  0  0  0  0  0  0  0  0  0
  -20.7489   -1.1311   18.4428 C   0  0  0  0  0  0  0  0  0  0  0  0
  -21.1441   -0.2273   20.1841 H   0  0  0  0  0  0  0  0  0  0  0  0
  1  6  1  0  0  0
  1  7  1  0  0  0
  2 10  1  0  0  0
  3  8  2  0  0  0
  4 12  1  0  0  0
 16 22  1  0  0  0
  5  6  1  0  0  0
  5  8  1  0  0  0
  5 10  2  0  0  0
  6 11  2  0  0  0
  7 17  1  0  0  0
  7  9  2  0  0  0
 17 18  1  0  0  0
 17 19  2  0  0  0
  8  9  1  0  0  0
 10 13  1  0  0  0
 11 12  1  0  0  0
 12 13  2  0  0  0
 18 20  2  0  0  0
 19 21  1  0  0  0
 20 22  1  0  0  0
 21 22  2  0  0  0
  2 14  1  0  0  0
  4 15  1  0  0  0
 16 23  1  0  0  0
M  END
> <PUBCHEM_COMPOUND_CID>
5280443

> <PUBCHEM_CONFORMER_RMSD>
0.6

> <PUBCHEM_CONFORMER_DIVERSEORDER>
1

> <PUBCHEM_MMFF94_PARTIAL_CHARGES>
30
1 -0.16
10 0.47
11 -0.14
12 0.08
13 -0.15
14 0.08
15 -0.15
16 -0.15
17 -0.15
18 -0.15
19 -0.15
2 -0.53
20 0.08
21 0.15
22 0.15
23 0.15
24 0.15
25 0.15
26 0.15
27 0.15
28 0.45
29 0.45
3 -0.57
30 0.45
4 -0.53
5 -0.53
6 0.09
7 0.08
8 0.05
9 0.03

> <PUBCHEM_EFFECTIVE_ROTOR_COUNT>
1

> <PUBCHEM_PHARMACOPHORE_FEATURES>
8
1 1 acceptor
1 2 donor
1 3 acceptor
1 4 donor
1 5 donor
6 1 6 7 8 10 11 rings
6 6 7 12 13 14 15 rings
6 9 16 17 18 19 20 rings

> <PUBCHEM_HEAVY_ATOM_COUNT>
20

> <PUBCHEM_ATOM_DEF_STEREO_COUNT>
0

> <PUBCHEM_ATOM_UDEF_STEREO_COUNT>
0

> <PUBCHEM_BOND_DEF_STEREO_COUNT>
0

> <PUBCHEM_BOND_UDEF_STEREO_COUNT>
0

> <PUBCHEM_ISOTOPIC_ATOM_COUNT>
0

> <PUBCHEM_COMPONENT_COUNT>
1

> <PUBCHEM_CACTVS_TAUTO_COUNT>
57

> <PUBCHEM_CONFORMER_ID>
005092BB00000001

> <PUBCHEM_MMFF94_ENERGY>
60.7436

> <PUBCHEM_FEATURE_SELFOVERLAP>
40.625

> <PUBCHEM_SHAPE_FINGERPRINT>
10014705 185 18335983090743610973
10319926 262 18339344337187947850
10411042 1 17833271196427205891
10493431 412 18339369544277550625
10498660 4 18336260146151624709
10608611 8 18342173405853837512
10646746 165 18410292501880224548
11315181 36 17967532415338923724
12107183 9 17973996255225508682
12173636 292 18409726227717107541
12236239 1 17458341966376888130
12390115 104 18270696268119625369
12403259 415 18202279234227041088
12500047 106 18411979165633848254
13073987 5 18334573538601782738
13140716 1 17974859676764465403
13544592 145 18269848531875060550
14508225 48 18124582335750861655
14790565 3 17908712730609502257
15042514 8 18192436496683379403
15196674 1 18411138009184468990
15375358 24 18272089392275024390
17844677 252 18338524131077601056
18186145 218 18201727210401115800
200 152 17060622204808618226
20510252 161 18342459253144016673
20645477 56 18410013234284757832
20645477 70 17203058396143606462
21033648 29 18271516554985427096
21065198 57 18411699920035301594
21236236 1 18412826893710328947
21267235 1 18337116777299593123
21279426 13 18269277859449011198
21421861 104 17750502976618702298
23402539 116 18412538829647092654
23402655 69 18131067100338114972
23557571 272 18342746247148492668
23559900 14 18271807861775124550
245318 6 16448986100328701468
283562 15 18410291424461079675
2916195 48 18342730849902058064
3004659 81 18335425613612532158
335352 9 18267022748231475478
350125 39 18410298038462750009
3545911 37 18342460348455732712
4028521 119 18341892965631935697
4214541 1 18411419514231212472
474 4 16879077545412114420
495365 180 17346021334593014002
5104073 3 18410011005465809410
542803 24 17530686524359763644
559249 180 18337386046670377618
633830 44 18199743644401676445
69090 78 18272086119177836790
77779 3 18412263930592437412
9709674 26 18342463655380539086

> <PUBCHEM_SHAPE_MULTIPOLES>
382.24
10.96
2.41
0.66
9.09
0.24
0
-3.75
0.48
-2.84
-0.06
0.21
-0.01
0.71

> <PUBCHEM_SHAPE_SELFOVERLAP>
856.39

> <PUBCHEM_SHAPE_VOLUME>
201.3

> <PUBCHEM_COORDINATE_TYPE>
2
5
10

> <minimizedAffinity>
-6.96452

> <CNNscore>
0.7411502600

> <CNNaffinity>
5.4462656975

> <CNN_VS>
4.0365014076

> <CNNaffinity_variance>
0.1302428544

$$$$
