5280443


 23 25  0  0  0  0  0  0  0  0999 V2000
  -18.4081   -0.4422   14.0816 O   0  0  0  0  0  0  0  0  0  0  0  0
  -18.0173   -2.2512    9.6016 O   0  0  0  0  0  0  0  0  0  0  0  0
  -19.5991   -3.2879   11.4202 O   0  0  0  0  0  0  0  0  0  0  0  0
  -15.4900    1.5506   10.9108 O   0  0  0  0  0  0  0  0  0  0  0  0
  -18.2549   -1.3929   11.8516 C   0  0  0  0  0  0  0  0  0  0  0  0
  -17.8904   -0.4499   12.8111 C   0  0  0  0  0  0  0  0  0  0  0  0
  -19.3400   -1.4114   14.4209 C   0  0  0  0  0  0  0  0  0  0  0  0
  -19.2362   -2.4279   12.2108 C   0  0  0  0  0  0  0  0  0  0  0  0
  -19.7653   -2.3752   13.5888 C   0  0  0  0  0  0  0  0  0  0  0  0
  -17.6943   -1.3528   10.5730 C   0  0  0  0  0  0  0  0  0  0  0  0
  -16.9603    0.5411   12.4966 C   0  0  0  0  0  0  0  0  0  0  0  0
  -16.3982    0.5849   11.2205 C   0  0  0  0  0  0  0  0  0  0  0  0
  -16.7646   -0.3601   10.2610 C   0  0  0  0  0  0  0  0  0  0  0  0
  -18.6383   -2.9301    9.7790 H   0  0  0  0  0  0  0  0  0  0  0  0
  -15.2434    2.1855   11.5543 H   0  0  0  0  0  0  0  0  0  0  0  0
  -21.1987   -1.0418   19.7241 O   0  0  0  0  0  0  0  0  0  0  0  0
  -19.8266   -1.3147   15.8117 C   0  0  0  0  0  0  0  0  0  0  0  0
  -19.7470   -0.1017   16.5002 C   0  0  0  0  0  0  0  0  0  0  0  0
  -20.3697   -2.4353   16.4446 C   0  0  0  0  0  0  0  0  0  0  0  0
  -20.2073   -0.0102   17.8138 C   0  0  0  0  0  0  0  0  0  0  0  0
  -20.8303   -2.3437   17.7581 C   0  0  0  0  0  0  0  0  0  0  0  0
  -20.7489   -1.1311   18.4428 C   0  0  0  0  0  0  0  0  0  0  0  0
  -21.1441   -0.2273   20.1841 H   0  0  0  0  0  0  0  0  0  0  0  0
  1  6  1  0  0  0
  1  7  1  0  0  0
  2 10  1  0  0  0
  3  8  2  0  0  0
  4 12  1  0  0  0
 16 22  1  0  0  0
  5  6  1  0  0  0
  5  8  1  0  0  0
  5 10  2  0  0  0
  6 11  2  0  0  0
  7 17  1  0  0  0
  7  9  2  0  0  0
 17 18  1  0  0  0
 17 19  2  0  0  0
  8  9  1  0  0  0
 10 13  1  0  0  0
 11 12  1  0  0  0
 12 13  2  0  0  0
 18 20  2  0  0  0
 19 21  1  0  0  0
 20 22  1  0  0  0
 21 22  2  0  0  0
  2 14  1  0  0  0
  4 15  1  0  0  0
 16 23  1  0  0  0
M  END
> <PUBCHEM_COMPOUND_CID>
5280443

> <PUBCHEM_CONFORMER_RMSD>
0.6

> <PUBCHEM_CONFORMER_DIVERSEORDER>
1

> <PUBCHEM_MMFF94_PARTIAL_CHARGES>
30
1 -0.16
10 0.47
11 -0.14
12 0.08
13 -0.15
14 0.08
15 -0.15
16 -0.15
17 -0.15
18 -0.15
19 -0.15
2 -0.53
20 0.08
21 0.15
22 0.15
23 0.15
24 0.15
25 0.15
26 0.15
27 0.15
28 0.45
29 0.45
3 -0.57
30 0.45
4 -0.53
5 -0.53
6 0.09
7 0.08
8 0.05
9 0.03

> <PUBCHEM_EFFECTIVE_ROTOR_COUNT>
1

> <PUBCHEM_PHARMACOPHORE_FEATURES>
8
1 1 acceptor
1 2 donor
1 3 acceptor
1 4 donor
1 5 donor
6 1 6 7 8 10 11 rings
6 6 7 12 13 14 15 rings
6 9 16 17 18 19 20 rings

> <PUBCHEM_HEAVY_ATOM_COUNT>
20

> <PUBCHEM_ATOM_DEF_STEREO_COUNT>
0

> <PUBCHEM_ATOM_UDEF_STEREO_COUNT>
0

> <PUBCHEM_BOND_DEF_STEREO_COUNT>
0

> <PUBCHEM_BOND_UDEF_STEREO_COUNT>
0

> <PUBCHEM_ISOTOPIC_ATOM_COUNT>
0

> <PUBCHEM_COMPONENT_COUNT>
1

> <PUBCHEM_CACTVS_TAUTO_COUNT>
57

> <PUBCHEM_CONFORMER_ID>
005092BB00000001

> <PUBCHEM_MMFF94_ENERGY>
60.7436

> <PUBCHEM_FEATURE_SELFOVERLAP>
40.625

> <PUBCHEM_SHAPE_FINGERPRINT>
10014705 185 18335983090743610973
10319926 262 18339344337187947850
10411042 1 17833271196427205891
10493431 412 18339369544277550625
10498660 4 18336260146151624709
10608611 8 18342173405853837512
10646746 165 18410292501880224548
11315181 36 17967532415338923724
12107183 9 17973996255225508682
12173636 292 18409726227717107541
12236239 1 17458341966376888130
12390115 104 18270696268119625369
12403259 415 18202279234227041088
12500047 106 18411979165633848254
13073987 5 18334573538601782738
13140716 1 17974859676764465403
13544592 145 18269848531875060550
14508225 48 18124582335750861655
14790565 3 17908712730609502257
15042514 8 18192436496683379403
15196674 1 18411138009184468990
15375358 24 18272089392275024390
17844677 252 18338524131077601056
18186145 218 18201727210401115800
200 152 17060622204808618226
20510252 161 18342459253144016673
20645477 56 18410013234284757832
20645477 70 17203058396143606462
21033648 29 18271516554985427096
21065198 57 18411699920035301594
21236236 1 18412826893710328947
21267235 1 18337116777299593123
21279426 13 18269277859449011198
21421861 104 17750502976618702298
23402539 116 18412538829647092654
23402655 69 18131067100338114972
23557571 272 18342746247148492668
23559900 14 18271807861775124550
245318 6 16448986100328701468
283562 15 18410291424461079675
2916195 48 18342730849902058064
3004659 81 18335425613612532158
335352 9 18267022748231475478
350125 39 18410298038462750009
3545911 37 18342460348455732712
4028521 119 18341892965631935697
4214541 1 18411419514231212472
474 4 16879077545412114420
495365 180 17346021334593014002
5104073 3 18410011005465809410
542803 24 17530686524359763644
559249 180 18337386046670377618
633830 44 18199743644401676445
69090 78 18272086119177836790
77779 3 18412263930592437412
9709674 26 18342463655380539086

> <PUBCHEM_SHAPE_MULTIPOLES>
382.24
10.96
2.41
0.66
9.09
0.24
0
-3.75
0.48
-2.84
-0.06
0.21
-0.01
0.71

> <PUBCHEM_SHAPE_SELFOVERLAP>
856.39

> <PUBCHEM_SHAPE_VOLUME>
201.3

> <PUBCHEM_COORDINATE_TYPE>
2
5
10

> <minimizedAffinity>
-6.96452

> <CNNscore>
0.7411502600

> <CNNaffinity>
5.4462656975

> <CNN_VS>
4.0365014076

> <CNNaffinity_variance>
0.1302428544

$$$$
5280443


 23 25  0  0  0  0  0  0  0  0999 V2000
  -18.1863   -0.1106   13.6330 O   0  0  0  0  0  0  0  0  0  0  0  0
  -18.6053    3.2625   10.1771 O   0  0  0  0  0  0  0  0  0  0  0  0
  -20.0160    3.3105   12.3889 O   0  0  0  0  0  0  0  0  0  0  0  0
  -15.5622   -0.3501    9.6836 O   0  0  0  0  0  0  0  0  0  0  0  0
  -18.4396    1.6092   11.9364 C   0  0  0  0  0  0  0  0  0  0  0  0
  -17.8541    0.4410   12.4215 C   0  0  0  0  0  0  0  0  0  0  0  0
  -19.1408    0.5281   14.4100 C   0  0  0  0  0  0  0  0  0  0  0  0
  -19.4592    2.2843   12.7538 C   0  0  0  0  0  0  0  0  0  0  0  0
  -19.7795    1.6527   14.0499 C   0  0  0  0  0  0  0  0  0  0  0  0
  -18.0627    2.1254   10.6946 C   0  0  0  0  0  0  0  0  0  0  0  0
  -16.8860   -0.2197   11.6651 C   0  0  0  0  0  0  0  0  0  0  0  0
  -16.5065    0.2927   10.4242 C   0  0  0  0  0  0  0  0  0  0  0  0
  -17.0937    1.4627    9.9402 C   0  0  0  0  0  0  0  0  0  0  0  0
  -19.2584    3.7311   10.6586 H   0  0  0  0  0  0  0  0  0  0  0  0
  -15.1674   -1.1357   10.0077 H   0  0  0  0  0  0  0  0  0  0  0  0
  -20.2328   -2.0666   19.2875 O   0  0  0  0  0  0  0  0  0  0  0  0
  -19.4263   -0.1525   15.6890 C   0  0  0  0  0  0  0  0  0  0  0  0
  -19.4245    0.5707   16.8843 C   0  0  0  0  0  0  0  0  0  0  0  0
  -19.7008   -1.5220   15.7092 C   0  0  0  0  0  0  0  0  0  0  0  0
  -19.6949   -0.0720   18.0924 C   0  0  0  0  0  0  0  0  0  0  0  0
  -19.9715   -2.1646   16.9173 C   0  0  0  0  0  0  0  0  0  0  0  0
  -19.9683   -1.4396   18.1090 C   0  0  0  0  0  0  0  0  0  0  0  0
  -20.2308   -1.5796   20.0881 H   0  0  0  0  0  0  0  0  0  0  0  0
  1  6  1  0  0  0
  1  7  1  0  0  0
  2 10  1  0  0  0
  3  8  2  0  0  0
  4 12  1  0  0  0
 16 22  1  0  0  0
  5  6  1  0  0  0
  5  8  1  0  0  0
  5 10  2  0  0  0
  6 11  2  0  0  0
  7 17  1  0  0  0
  7  9  2  0  0  0
 17 18  1  0  0  0
 17 19  2  0  0  0
  8  9  1  0  0  0
 10 13  1  0  0  0
 11 12  1  0  0  0
 12 13  2  0  0  0
 18 20  2  0  0  0
 19 21  1  0  0  0
 20 22  1  0  0  0
 21 22  2  0  0  0
  2 14  1  0  0  0
  4 15  1  0  0  0
 16 23  1  0  0  0
M  END
> <PUBCHEM_COMPOUND_CID>
5280443

> <PUBCHEM_CONFORMER_RMSD>
0.6

> <PUBCHEM_CONFORMER_DIVERSEORDER>
1

> <PUBCHEM_MMFF94_PARTIAL_CHARGES>
30
1 -0.16
10 0.47
11 -0.14
12 0.08
13 -0.15
14 0.08
15 -0.15
16 -0.15
17 -0.15
18 -0.15
19 -0.15
2 -0.53
20 0.08
21 0.15
22 0.15
23 0.15
24 0.15
25 0.15
26 0.15
27 0.15
28 0.45
29 0.45
3 -0.57
30 0.45
4 -0.53
5 -0.53
6 0.09
7 0.08
8 0.05
9 0.03

> <PUBCHEM_EFFECTIVE_ROTOR_COUNT>
1

> <PUBCHEM_PHARMACOPHORE_FEATURES>
8
1 1 acceptor
1 2 donor
1 3 acceptor
1 4 donor
1 5 donor
6 1 6 7 8 10 11 rings
6 6 7 12 13 14 15 rings
6 9 16 17 18 19 20 rings

> <PUBCHEM_HEAVY_ATOM_COUNT>
20

> <PUBCHEM_ATOM_DEF_STEREO_COUNT>
0

> <PUBCHEM_ATOM_UDEF_STEREO_COUNT>
0

> <PUBCHEM_BOND_DEF_STEREO_COUNT>
0

> <PUBCHEM_BOND_UDEF_STEREO_COUNT>
0

> <PUBCHEM_ISOTOPIC_ATOM_COUNT>
0

> <PUBCHEM_COMPONENT_COUNT>
1

> <PUBCHEM_CACTVS_TAUTO_COUNT>
57

> <PUBCHEM_CONFORMER_ID>
005092BB00000001

> <PUBCHEM_MMFF94_ENERGY>
60.7436

> <PUBCHEM_FEATURE_SELFOVERLAP>
40.625

> <PUBCHEM_SHAPE_FINGERPRINT>
10014705 185 18335983090743610973
10319926 262 18339344337187947850
10411042 1 17833271196427205891
10493431 412 18339369544277550625
10498660 4 18336260146151624709
10608611 8 18342173405853837512
10646746 165 18410292501880224548
11315181 36 17967532415338923724
12107183 9 17973996255225508682
12173636 292 18409726227717107541
12236239 1 17458341966376888130
12390115 104 18270696268119625369
12403259 415 18202279234227041088
12500047 106 18411979165633848254
13073987 5 18334573538601782738
13140716 1 17974859676764465403
13544592 145 18269848531875060550
14508225 48 18124582335750861655
14790565 3 17908712730609502257
15042514 8 18192436496683379403
15196674 1 18411138009184468990
15375358 24 18272089392275024390
17844677 252 18338524131077601056
18186145 218 18201727210401115800
200 152 17060622204808618226
20510252 161 18342459253144016673
20645477 56 18410013234284757832
20645477 70 17203058396143606462
21033648 29 18271516554985427096
21065198 57 18411699920035301594
21236236 1 18412826893710328947
21267235 1 18337116777299593123
21279426 13 18269277859449011198
21421861 104 17750502976618702298
23402539 116 18412538829647092654
23402655 69 18131067100338114972
23557571 272 18342746247148492668
23559900 14 18271807861775124550
245318 6 16448986100328701468
283562 15 18410291424461079675
2916195 48 18342730849902058064
3004659 81 18335425613612532158
335352 9 18267022748231475478
350125 39 18410298038462750009
3545911 37 18342460348455732712
4028521 119 18341892965631935697
4214541 1 18411419514231212472
474 4 16879077545412114420
495365 180 17346021334593014002
5104073 3 18410011005465809410
542803 24 17530686524359763644
559249 180 18337386046670377618
633830 44 18199743644401676445
69090 78 18272086119177836790
77779 3 18412263930592437412
9709674 26 18342463655380539086

> <PUBCHEM_SHAPE_MULTIPOLES>
382.24
10.96
2.41
0.66
9.09
0.24
0
-3.75
0.48
-2.84
-0.06
0.21
-0.01
0.71

> <PUBCHEM_SHAPE_SELFOVERLAP>
856.39

> <PUBCHEM_SHAPE_VOLUME>
201.3

> <PUBCHEM_COORDINATE_TYPE>
2
5
10

> <minimizedAffinity>
-8.99806

> <CNNscore>
0.6596376896

> <CNNaffinity>
5.2359266281

> <CNN_VS>
3.4538145065

> <CNNaffinity_variance>
0.1017259806

$$$$
5280443


 23 25  0  0  0  0  0  0  0  0999 V2000
  -19.2644   -0.7554   10.2815 O   0  0  0  0  0  0  0  0  0  0  0  0
  -15.0536    1.5032   11.0963 O   0  0  0  0  0  0  0  0  0  0  0  0
  -15.8593   -0.5553   12.5097 O   0  0  0  0  0  0  0  0  0  0  0  0
  -17.9587    2.9634    7.6346 O   0  0  0  0  0  0  0  0  0  0  0  0
  -17.1424    0.3356   10.7366 C   0  0  0  0  0  0  0  0  0  0  0  0
  -18.3284    0.2116   10.0149 C   0  0  0  0  0  0  0  0  0  0  0  0
  -19.0135   -1.6519   11.3092 C   0  0  0  0  0  0  0  0  0  0  0  0
  -16.8772   -0.6078   11.8334 C   0  0  0  0  0  0  0  0  0  0  0  0
  -17.9137   -1.6310   12.0788 C   0  0  0  0  0  0  0  0  0  0  0  0
  -16.2253    1.3406   10.4211 C   0  0  0  0  0  0  0  0  0  0  0  0
  -18.6049    1.0947    8.9710 C   0  0  0  0  0  0  0  0  0  0  0  0
  -17.6914    2.0999    8.6526 C   0  0  0  0  0  0  0  0  0  0  0  0
  -16.5042    2.2224    9.3762 C   0  0  0  0  0  0  0  0  0  0  0  0
  -14.8365    0.9278   11.8032 H   0  0  0  0  0  0  0  0  0  0  0  0
  -18.7554    2.8820    7.1482 H   0  0  0  0  0  0  0  0  0  0  0  0
  -23.1079   -5.4394   12.0875 O   0  0  0  0  0  0  0  0  0  0  0  0
  -20.0868   -2.6452   11.5141 C   0  0  0  0  0  0  0  0  0  0  0  0
  -21.3409   -2.2379   11.9756 C   0  0  0  0  0  0  0  0  0  0  0  0
  -19.8532   -3.9961   11.2461 C   0  0  0  0  0  0  0  0  0  0  0  0
  -22.3550   -3.1760   12.1684 C   0  0  0  0  0  0  0  0  0  0  0  0
  -20.8675   -4.9342   11.4387 C   0  0  0  0  0  0  0  0  0  0  0  0
  -22.1184   -4.5241   11.9000 C   0  0  0  0  0  0  0  0  0  0  0  0
  -23.9482   -5.1641   12.3974 H   0  0  0  0  0  0  0  0  0  0  0  0
  1  6  1  0  0  0
  1  7  1  0  0  0
  2 10  1  0  0  0
  3  8  2  0  0  0
  4 12  1  0  0  0
 16 22  1  0  0  0
  5  6  1  0  0  0
  5  8  1  0  0  0
  5 10  2  0  0  0
  6 11  2  0  0  0
  7 17  1  0  0  0
  7  9  2  0  0  0
 17 18  1  0  0  0
 17 19  2  0  0  0
  8  9  1  0  0  0
 10 13  1  0  0  0
 11 12  1  0  0  0
 12 13  2  0  0  0
 18 20  2  0  0  0
 19 21  1  0  0  0
 20 22  1  0  0  0
 21 22  2  0  0  0
  2 14  1  0  0  0
  4 15  1  0  0  0
 16 23  1  0  0  0
M  END
> <PUBCHEM_COMPOUND_CID>
5280443

> <PUBCHEM_CONFORMER_RMSD>
0.6

> <PUBCHEM_CONFORMER_DIVERSEORDER>
1

> <PUBCHEM_MMFF94_PARTIAL_CHARGES>
30
1 -0.16
10 0.47
11 -0.14
12 0.08
13 -0.15
14 0.08
15 -0.15
16 -0.15
17 -0.15
18 -0.15
19 -0.15
2 -0.53
20 0.08
21 0.15
22 0.15
23 0.15
24 0.15
25 0.15
26 0.15
27 0.15
28 0.45
29 0.45
3 -0.57
30 0.45
4 -0.53
5 -0.53
6 0.09
7 0.08
8 0.05
9 0.03

> <PUBCHEM_EFFECTIVE_ROTOR_COUNT>
1

> <PUBCHEM_PHARMACOPHORE_FEATURES>
8
1 1 acceptor
1 2 donor
1 3 acceptor
1 4 donor
1 5 donor
6 1 6 7 8 10 11 rings
6 6 7 12 13 14 15 rings
6 9 16 17 18 19 20 rings

> <PUBCHEM_HEAVY_ATOM_COUNT>
20

> <PUBCHEM_ATOM_DEF_STEREO_COUNT>
0

> <PUBCHEM_ATOM_UDEF_STEREO_COUNT>
0

> <PUBCHEM_BOND_DEF_STEREO_COUNT>
0

> <PUBCHEM_BOND_UDEF_STEREO_COUNT>
0

> <PUBCHEM_ISOTOPIC_ATOM_COUNT>
0

> <PUBCHEM_COMPONENT_COUNT>
1

> <PUBCHEM_CACTVS_TAUTO_COUNT>
57

> <PUBCHEM_CONFORMER_ID>
005092BB00000001

> <PUBCHEM_MMFF94_ENERGY>
60.7436

> <PUBCHEM_FEATURE_SELFOVERLAP>
40.625

> <PUBCHEM_SHAPE_FINGERPRINT>
10014705 185 18335983090743610973
10319926 262 18339344337187947850
10411042 1 17833271196427205891
10493431 412 18339369544277550625
10498660 4 18336260146151624709
10608611 8 18342173405853837512
10646746 165 18410292501880224548
11315181 36 17967532415338923724
12107183 9 17973996255225508682
12173636 292 18409726227717107541
12236239 1 17458341966376888130
12390115 104 18270696268119625369
12403259 415 18202279234227041088
12500047 106 18411979165633848254
13073987 5 18334573538601782738
13140716 1 17974859676764465403
13544592 145 18269848531875060550
14508225 48 18124582335750861655
14790565 3 17908712730609502257
15042514 8 18192436496683379403
15196674 1 18411138009184468990
15375358 24 18272089392275024390
17844677 252 18338524131077601056
18186145 218 18201727210401115800
200 152 17060622204808618226
20510252 161 18342459253144016673
20645477 56 18410013234284757832
20645477 70 17203058396143606462
21033648 29 18271516554985427096
21065198 57 18411699920035301594
21236236 1 18412826893710328947
21267235 1 18337116777299593123
21279426 13 18269277859449011198
21421861 104 17750502976618702298
23402539 116 18412538829647092654
23402655 69 18131067100338114972
23557571 272 18342746247148492668
23559900 14 18271807861775124550
245318 6 16448986100328701468
283562 15 18410291424461079675
2916195 48 18342730849902058064
3004659 81 18335425613612532158
335352 9 18267022748231475478
350125 39 18410298038462750009
3545911 37 18342460348455732712
4028521 119 18341892965631935697
4214541 1 18411419514231212472
474 4 16879077545412114420
495365 180 17346021334593014002
5104073 3 18410011005465809410
542803 24 17530686524359763644
559249 180 18337386046670377618
633830 44 18199743644401676445
69090 78 18272086119177836790
77779 3 18412263930592437412
9709674 26 18342463655380539086

> <PUBCHEM_SHAPE_MULTIPOLES>
382.24
10.96
2.41
0.66
9.09
0.24
0
-3.75
0.48
-2.84
-0.06
0.21
-0.01
0.71

> <PUBCHEM_SHAPE_SELFOVERLAP>
856.39

> <PUBCHEM_SHAPE_VOLUME>
201.3

> <PUBCHEM_COORDINATE_TYPE>
2
5
10

> <minimizedAffinity>
-4.16571

> <CNNscore>
0.5809102654

> <CNNaffinity>
4.8459959030

> <CNN_VS>
2.8150887489

> <CNNaffinity_variance>
0.1694770306

$$$$
5280443


 23 25  0  0  0  0  0  0  0  0999 V2000
  -23.2735   -3.2055   11.6170 O   0  0  0  0  0  0  0  0  0  0  0  0
  -18.8558   -5.1405   12.1032 O   0  0  0  0  0  0  0  0  0  0  0  0
  -19.4806   -2.7706   13.0399 O   0  0  0  0  0  0  0  0  0  0  0  0
  -22.3056   -7.5063    9.8544 O   0  0  0  0  0  0  0  0  0  0  0  0
  -21.0415   -4.1235   11.8921 C   0  0  0  0  0  0  0  0  0  0  0  0
  -22.3541   -4.2066   11.4305 C   0  0  0  0  0  0  0  0  0  0  0  0
  -22.8793   -2.0658   12.3014 C   0  0  0  0  0  0  0  0  0  0  0  0
  -20.6172   -2.9121   12.6104 C   0  0  0  0  0  0  0  0  0  0  0  0
  -21.6439   -1.8653   12.7874 C   0  0  0  0  0  0  0  0  0  0  0  0
  -20.1476   -5.1740   11.6728 C   0  0  0  0  0  0  0  0  0  0  0  0
  -22.7813   -5.3437   10.7447 C   0  0  0  0  0  0  0  0  0  0  0  0
  -21.8916   -6.3954   10.5237 C   0  0  0  0  0  0  0  0  0  0  0  0
  -20.5778   -6.3106   10.9868 C   0  0  0  0  0  0  0  0  0  0  0  0
  -18.5358   -4.3918   12.5668 H   0  0  0  0  0  0  0  0  0  0  0  0
  -23.1875   -7.5643    9.5431 H   0  0  0  0  0  0  0  0  0  0  0  0
  -26.9384    1.8023   12.8278 O   0  0  0  0  0  0  0  0  0  0  0  0
  -23.9433   -1.0513   12.4402 C   0  0  0  0  0  0  0  0  0  0  0  0
  -23.7731    0.2232   11.8939 C   0  0  0  0  0  0  0  0  0  0  0  0
  -25.1251   -1.3620   13.1171 C   0  0  0  0  0  0  0  0  0  0  0  0
  -24.7784    1.1813   12.0244 C   0  0  0  0  0  0  0  0  0  0  0  0
  -26.1305   -0.4039   13.2473 C   0  0  0  0  0  0  0  0  0  0  0  0
  -25.9572    0.8678   12.7011 C   0  0  0  0  0  0  0  0  0  0  0  0
  -26.8220    2.6566   12.4610 H   0  0  0  0  0  0  0  0  0  0  0  0
  1  6  1  0  0  0
  1  7  1  0  0  0
  2 10  1  0  0  0
  3  8  2  0  0  0
  4 12  1  0  0  0
 16 22  1  0  0  0
  5  6  1  0  0  0
  5  8  1  0  0  0
  5 10  2  0  0  0
  6 11  2  0  0  0
  7 17  1  0  0  0
  7  9  2  0  0  0
 17 18  1  0  0  0
 17 19  2  0  0  0
  8  9  1  0  0  0
 10 13  1  0  0  0
 11 12  1  0  0  0
 12 13  2  0  0  0
 18 20  2  0  0  0
 19 21  1  0  0  0
 20 22  1  0  0  0
 21 22  2  0  0  0
  2 14  1  0  0  0
  4 15  1  0  0  0
 16 23  1  0  0  0
M  END
> <PUBCHEM_COMPOUND_CID>
5280443

> <PUBCHEM_CONFORMER_RMSD>
0.6

> <PUBCHEM_CONFORMER_DIVERSEORDER>
1

> <PUBCHEM_MMFF94_PARTIAL_CHARGES>
30
1 -0.16
10 0.47
11 -0.14
12 0.08
13 -0.15
14 0.08
15 -0.15
16 -0.15
17 -0.15
18 -0.15
19 -0.15
2 -0.53
20 0.08
21 0.15
22 0.15
23 0.15
24 0.15
25 0.15
26 0.15
27 0.15
28 0.45
29 0.45
3 -0.57
30 0.45
4 -0.53
5 -0.53
6 0.09
7 0.08
8 0.05
9 0.03

> <PUBCHEM_EFFECTIVE_ROTOR_COUNT>
1

> <PUBCHEM_PHARMACOPHORE_FEATURES>
8
1 1 acceptor
1 2 donor
1 3 acceptor
1 4 donor
1 5 donor
6 1 6 7 8 10 11 rings
6 6 7 12 13 14 15 rings
6 9 16 17 18 19 20 rings

> <PUBCHEM_HEAVY_ATOM_COUNT>
20

> <PUBCHEM_ATOM_DEF_STEREO_COUNT>
0

> <PUBCHEM_ATOM_UDEF_STEREO_COUNT>
0

> <PUBCHEM_BOND_DEF_STEREO_COUNT>
0

> <PUBCHEM_BOND_UDEF_STEREO_COUNT>
0

> <PUBCHEM_ISOTOPIC_ATOM_COUNT>
0

> <PUBCHEM_COMPONENT_COUNT>
1

> <PUBCHEM_CACTVS_TAUTO_COUNT>
57

> <PUBCHEM_CONFORMER_ID>
005092BB00000001

> <PUBCHEM_MMFF94_ENERGY>
60.7436

> <PUBCHEM_FEATURE_SELFOVERLAP>
40.625

> <PUBCHEM_SHAPE_FINGERPRINT>
10014705 185 18335983090743610973
10319926 262 18339344337187947850
10411042 1 17833271196427205891
10493431 412 18339369544277550625
10498660 4 18336260146151624709
10608611 8 18342173405853837512
10646746 165 18410292501880224548
11315181 36 17967532415338923724
12107183 9 17973996255225508682
12173636 292 18409726227717107541
12236239 1 17458341966376888130
12390115 104 18270696268119625369
12403259 415 18202279234227041088
12500047 106 18411979165633848254
13073987 5 18334573538601782738
13140716 1 17974859676764465403
13544592 145 18269848531875060550
14508225 48 18124582335750861655
14790565 3 17908712730609502257
15042514 8 18192436496683379403
15196674 1 18411138009184468990
15375358 24 18272089392275024390
17844677 252 18338524131077601056
18186145 218 18201727210401115800
200 152 17060622204808618226
20510252 161 18342459253144016673
20645477 56 18410013234284757832
20645477 70 17203058396143606462
21033648 29 18271516554985427096
21065198 57 18411699920035301594
21236236 1 18412826893710328947
21267235 1 18337116777299593123
21279426 13 18269277859449011198
21421861 104 17750502976618702298
23402539 116 18412538829647092654
23402655 69 18131067100338114972
23557571 272 18342746247148492668
23559900 14 18271807861775124550
245318 6 16448986100328701468
283562 15 18410291424461079675
2916195 48 18342730849902058064
3004659 81 18335425613612532158
335352 9 18267022748231475478
350125 39 18410298038462750009
3545911 37 18342460348455732712
4028521 119 18341892965631935697
4214541 1 18411419514231212472
474 4 16879077545412114420
495365 180 17346021334593014002
5104073 3 18410011005465809410
542803 24 17530686524359763644
559249 180 18337386046670377618
633830 44 18199743644401676445
69090 78 18272086119177836790
77779 3 18412263930592437412
9709674 26 18342463655380539086

> <PUBCHEM_SHAPE_MULTIPOLES>
382.24
10.96
2.41
0.66
9.09
0.24
0
-3.75
0.48
-2.84
-0.06
0.21
-0.01
0.71

> <PUBCHEM_SHAPE_SELFOVERLAP>
856.39

> <PUBCHEM_SHAPE_VOLUME>
201.3

> <PUBCHEM_COORDINATE_TYPE>
2
5
10

> <minimizedAffinity>
-5.73949

> <CNNscore>
0.5395351648

> <CNNaffinity>
4.3658990860

> <CNN_VS>
2.3555560112

> <CNNaffinity_variance>
0.0473160632

$$$$
5280443


 23 25  0  0  0  0  0  0  0  0999 V2000
  -23.8769   -2.6795   10.6583 O   0  0  0  0  0  0  0  0  0  0  0  0
  -26.9735   -1.2349   14.0963 O   0  0  0  0  0  0  0  0  0  0  0  0
  -26.6440   -3.7560   13.4483 O   0  0  0  0  0  0  0  0  0  0  0  0
  -24.3590    1.9265   11.7035 O   0  0  0  0  0  0  0  0  0  0  0  0
  -25.4442   -2.0160   12.3913 C   0  0  0  0  0  0  0  0  0  0  0  0
  -24.4907   -1.7173   11.4195 C   0  0  0  0  0  0  0  0  0  0  0  0
  -24.2161   -4.0069   10.8724 C   0  0  0  0  0  0  0  0  0  0  0  0
  -25.8132   -3.4221   12.6149 C   0  0  0  0  0  0  0  0  0  0  0  0
  -25.1228   -4.4197   11.7724 C   0  0  0  0  0  0  0  0  0  0  0  0
  -26.0374   -0.9945   13.1366 C   0  0  0  0  0  0  0  0  0  0  0  0
  -24.1244   -0.3916   11.1865 C   0  0  0  0  0  0  0  0  0  0  0  0
  -24.7143    0.6317   11.9289 C   0  0  0  0  0  0  0  0  0  0  0  0
  -25.6687    0.3307   12.9018 C   0  0  0  0  0  0  0  0  0  0  0  0
  -27.2429   -2.1137   14.2784 H   0  0  0  0  0  0  0  0  0  0  0  0
  -23.7184    2.1296   11.0506 H   0  0  0  0  0  0  0  0  0  0  0  0
  -21.4943   -7.6323    7.5312 O   0  0  0  0  0  0  0  0  0  0  0  0
  -23.5017   -4.9574    9.9967 C   0  0  0  0  0  0  0  0  0  0  0  0
  -23.4451   -6.3127   10.3308 C   0  0  0  0  0  0  0  0  0  0  0  0
  -22.8805   -4.5057    8.8300 C   0  0  0  0  0  0  0  0  0  0  0  0
  -22.7709   -7.2106    9.5033 C   0  0  0  0  0  0  0  0  0  0  0  0
  -22.2065   -5.4037    8.0023 C   0  0  0  0  0  0  0  0  0  0  0  0
  -22.1516   -6.7562    8.3390 C   0  0  0  0  0  0  0  0  0  0  0  0
  -21.4574   -8.5409    7.7574 H   0  0  0  0  0  0  0  0  0  0  0  0
  1  6  1  0  0  0
  1  7  1  0  0  0
  2 10  1  0  0  0
  3  8  2  0  0  0
  4 12  1  0  0  0
 16 22  1  0  0  0
  5  6  1  0  0  0
  5  8  1  0  0  0
  5 10  2  0  0  0
  6 11  2  0  0  0
  7 17  1  0  0  0
  7  9  2  0  0  0
 17 18  1  0  0  0
 17 19  2  0  0  0
  8  9  1  0  0  0
 10 13  1  0  0  0
 11 12  1  0  0  0
 12 13  2  0  0  0
 18 20  2  0  0  0
 19 21  1  0  0  0
 20 22  1  0  0  0
 21 22  2  0  0  0
  2 14  1  0  0  0
  4 15  1  0  0  0
 16 23  1  0  0  0
M  END
> <PUBCHEM_COMPOUND_CID>
5280443

> <PUBCHEM_CONFORMER_RMSD>
0.6

> <PUBCHEM_CONFORMER_DIVERSEORDER>
1

> <PUBCHEM_MMFF94_PARTIAL_CHARGES>
30
1 -0.16
10 0.47
11 -0.14
12 0.08
13 -0.15
14 0.08
15 -0.15
16 -0.15
17 -0.15
18 -0.15
19 -0.15
2 -0.53
20 0.08
21 0.15
22 0.15
23 0.15
24 0.15
25 0.15
26 0.15
27 0.15
28 0.45
29 0.45
3 -0.57
30 0.45
4 -0.53
5 -0.53
6 0.09
7 0.08
8 0.05
9 0.03

> <PUBCHEM_EFFECTIVE_ROTOR_COUNT>
1

> <PUBCHEM_PHARMACOPHORE_FEATURES>
8
1 1 acceptor
1 2 donor
1 3 acceptor
1 4 donor
1 5 donor
6 1 6 7 8 10 11 rings
6 6 7 12 13 14 15 rings
6 9 16 17 18 19 20 rings

> <PUBCHEM_HEAVY_ATOM_COUNT>
20

> <PUBCHEM_ATOM_DEF_STEREO_COUNT>
0

> <PUBCHEM_ATOM_UDEF_STEREO_COUNT>
0

> <PUBCHEM_BOND_DEF_STEREO_COUNT>
0

> <PUBCHEM_BOND_UDEF_STEREO_COUNT>
0

> <PUBCHEM_ISOTOPIC_ATOM_COUNT>
0

> <PUBCHEM_COMPONENT_COUNT>
1

> <PUBCHEM_CACTVS_TAUTO_COUNT>
57

> <PUBCHEM_CONFORMER_ID>
005092BB00000001

> <PUBCHEM_MMFF94_ENERGY>
60.7436

> <PUBCHEM_FEATURE_SELFOVERLAP>
40.625

> <PUBCHEM_SHAPE_FINGERPRINT>
10014705 185 18335983090743610973
10319926 262 18339344337187947850
10411042 1 17833271196427205891
10493431 412 18339369544277550625
10498660 4 18336260146151624709
10608611 8 18342173405853837512
10646746 165 18410292501880224548
11315181 36 17967532415338923724
12107183 9 17973996255225508682
12173636 292 18409726227717107541
12236239 1 17458341966376888130
12390115 104 18270696268119625369
12403259 415 18202279234227041088
12500047 106 18411979165633848254
13073987 5 18334573538601782738
13140716 1 17974859676764465403
13544592 145 18269848531875060550
14508225 48 18124582335750861655
14790565 3 17908712730609502257
15042514 8 18192436496683379403
15196674 1 18411138009184468990
15375358 24 18272089392275024390
17844677 252 18338524131077601056
18186145 218 18201727210401115800
200 152 17060622204808618226
20510252 161 18342459253144016673
20645477 56 18410013234284757832
20645477 70 17203058396143606462
21033648 29 18271516554985427096
21065198 57 18411699920035301594
21236236 1 18412826893710328947
21267235 1 18337116777299593123
21279426 13 18269277859449011198
21421861 104 17750502976618702298
23402539 116 18412538829647092654
23402655 69 18131067100338114972
23557571 272 18342746247148492668
23559900 14 18271807861775124550
245318 6 16448986100328701468
283562 15 18410291424461079675
2916195 48 18342730849902058064
3004659 81 18335425613612532158
335352 9 18267022748231475478
350125 39 18410298038462750009
3545911 37 18342460348455732712
4028521 119 18341892965631935697
4214541 1 18411419514231212472
474 4 16879077545412114420
495365 180 17346021334593014002
5104073 3 18410011005465809410
542803 24 17530686524359763644
559249 180 18337386046670377618
633830 44 18199743644401676445
69090 78 18272086119177836790
77779 3 18412263930592437412
9709674 26 18342463655380539086

> <PUBCHEM_SHAPE_MULTIPOLES>
382.24
10.96
2.41
0.66
9.09
0.24
0
-3.75
0.48
-2.84
-0.06
0.21
-0.01
0.71

> <PUBCHEM_SHAPE_SELFOVERLAP>
856.39

> <PUBCHEM_SHAPE_VOLUME>
201.3

> <PUBCHEM_COORDINATE_TYPE>
2
5
10

> <minimizedAffinity>
-4.28526

> <CNNscore>
0.5243983269

> <CNNaffinity>
4.2786245346

> <CNN_VS>
2.2437036037

> <CNNaffinity_variance>
0.1873769015

$$$$
5280443


 23 25  0  0  0  0  0  0  0  0999 V2000
  -24.3927   -1.8523   10.6587 O   0  0  0  0  0  0  0  0  0  0  0  0
  -26.5376    1.9488    8.5499 O   0  0  0  0  0  0  0  0  0  0  0  0
  -25.9902   -0.2700    7.2610 O   0  0  0  0  0  0  0  0  0  0  0  0
  -25.3059    2.0945   13.1344 O   0  0  0  0  0  0  0  0  0  0  0  0
  -25.4701    0.0200    9.5478 C   0  0  0  0  0  0  0  0  0  0  0  0
  -24.9082   -0.5810   10.6729 C   0  0  0  0  0  0  0  0  0  0  0  0
  -24.4410   -2.5713    9.4739 C   0  0  0  0  0  0  0  0  0  0  0  0
  -25.5147   -0.7363    8.2871 C   0  0  0  0  0  0  0  0  0  0  0  0
  -24.9497   -2.1004    8.3242 C   0  0  0  0  0  0  0  0  0  0  0  0
  -25.9795    1.3184    9.6205 C   0  0  0  0  0  0  0  0  0  0  0  0
  -24.8519    0.1153   11.8804 C   0  0  0  0  0  0  0  0  0  0  0  0
  -25.3598    1.4124   11.9574 C   0  0  0  0  0  0  0  0  0  0  0  0
  -25.9223    2.0125   10.8298 C   0  0  0  0  0  0  0  0  0  0  0  0
  -26.5912    1.5103    7.7236 H   0  0  0  0  0  0  0  0  0  0  0  0
  -24.9284    1.6926   13.8919 H   0  0  0  0  0  0  0  0  0  0  0  0
  -22.2015   -7.7259    9.8341 O   0  0  0  0  0  0  0  0  0  0  0  0
  -23.8545   -3.9232    9.5684 C   0  0  0  0  0  0  0  0  0  0  0  0
  -23.5168   -4.6241    8.4081 C   0  0  0  0  0  0  0  0  0  0  0  0
  -23.6338   -4.5066   10.8183 C   0  0  0  0  0  0  0  0  0  0  0  0
  -22.9621   -5.9009    8.4973 C   0  0  0  0  0  0  0  0  0  0  0  0
  -23.0789   -5.7833   10.9075 C   0  0  0  0  0  0  0  0  0  0  0  0
  -22.7432   -6.4805    9.7470 C   0  0  0  0  0  0  0  0  0  0  0  0
  -21.9760   -8.1943    9.0546 H   0  0  0  0  0  0  0  0  0  0  0  0
  1  6  1  0  0  0
  1  7  1  0  0  0
  2 10  1  0  0  0
  3  8  2  0  0  0
  4 12  1  0  0  0
 16 22  1  0  0  0
  5  6  1  0  0  0
  5  8  1  0  0  0
  5 10  2  0  0  0
  6 11  2  0  0  0
  7 17  1  0  0  0
  7  9  2  0  0  0
 17 18  1  0  0  0
 17 19  2  0  0  0
  8  9  1  0  0  0
 10 13  1  0  0  0
 11 12  1  0  0  0
 12 13  2  0  0  0
 18 20  2  0  0  0
 19 21  1  0  0  0
 20 22  1  0  0  0
 21 22  2  0  0  0
  2 14  1  0  0  0
  4 15  1  0  0  0
 16 23  1  0  0  0
M  END
> <PUBCHEM_COMPOUND_CID>
5280443

> <PUBCHEM_CONFORMER_RMSD>
0.6

> <PUBCHEM_CONFORMER_DIVERSEORDER>
1

> <PUBCHEM_MMFF94_PARTIAL_CHARGES>
30
1 -0.16
10 0.47
11 -0.14
12 0.08
13 -0.15
14 0.08
15 -0.15
16 -0.15
17 -0.15
18 -0.15
19 -0.15
2 -0.53
20 0.08
21 0.15
22 0.15
23 0.15
24 0.15
25 0.15
26 0.15
27 0.15
28 0.45
29 0.45
3 -0.57
30 0.45
4 -0.53
5 -0.53
6 0.09
7 0.08
8 0.05
9 0.03

> <PUBCHEM_EFFECTIVE_ROTOR_COUNT>
1

> <PUBCHEM_PHARMACOPHORE_FEATURES>
8
1 1 acceptor
1 2 donor
1 3 acceptor
1 4 donor
1 5 donor
6 1 6 7 8 10 11 rings
6 6 7 12 13 14 15 rings
6 9 16 17 18 19 20 rings

> <PUBCHEM_HEAVY_ATOM_COUNT>
20

> <PUBCHEM_ATOM_DEF_STEREO_COUNT>
0

> <PUBCHEM_ATOM_UDEF_STEREO_COUNT>
0

> <PUBCHEM_BOND_DEF_STEREO_COUNT>
0

> <PUBCHEM_BOND_UDEF_STEREO_COUNT>
0

> <PUBCHEM_ISOTOPIC_ATOM_COUNT>
0

> <PUBCHEM_COMPONENT_COUNT>
1

> <PUBCHEM_CACTVS_TAUTO_COUNT>
57

> <PUBCHEM_CONFORMER_ID>
005092BB00000001

> <PUBCHEM_MMFF94_ENERGY>
60.7436

> <PUBCHEM_FEATURE_SELFOVERLAP>
40.625

> <PUBCHEM_SHAPE_FINGERPRINT>
10014705 185 18335983090743610973
10319926 262 18339344337187947850
10411042 1 17833271196427205891
10493431 412 18339369544277550625
10498660 4 18336260146151624709
10608611 8 18342173405853837512
10646746 165 18410292501880224548
11315181 36 17967532415338923724
12107183 9 17973996255225508682
12173636 292 18409726227717107541
12236239 1 17458341966376888130
12390115 104 18270696268119625369
12403259 415 18202279234227041088
12500047 106 18411979165633848254
13073987 5 18334573538601782738
13140716 1 17974859676764465403
13544592 145 18269848531875060550
14508225 48 18124582335750861655
14790565 3 17908712730609502257
15042514 8 18192436496683379403
15196674 1 18411138009184468990
15375358 24 18272089392275024390
17844677 252 18338524131077601056
18186145 218 18201727210401115800
200 152 17060622204808618226
20510252 161 18342459253144016673
20645477 56 18410013234284757832
20645477 70 17203058396143606462
21033648 29 18271516554985427096
21065198 57 18411699920035301594
21236236 1 18412826893710328947
21267235 1 18337116777299593123
21279426 13 18269277859449011198
21421861 104 17750502976618702298
23402539 116 18412538829647092654
23402655 69 18131067100338114972
23557571 272 18342746247148492668
23559900 14 18271807861775124550
245318 6 16448986100328701468
283562 15 18410291424461079675
2916195 48 18342730849902058064
3004659 81 18335425613612532158
335352 9 18267022748231475478
350125 39 18410298038462750009
3545911 37 18342460348455732712
4028521 119 18341892965631935697
4214541 1 18411419514231212472
474 4 16879077545412114420
495365 180 17346021334593014002
5104073 3 18410011005465809410
542803 24 17530686524359763644
559249 180 18337386046670377618
633830 44 18199743644401676445
69090 78 18272086119177836790
77779 3 18412263930592437412
9709674 26 18342463655380539086

> <PUBCHEM_SHAPE_MULTIPOLES>
382.24
10.96
2.41
0.66
9.09
0.24
0
-3.75
0.48
-2.84
-0.06
0.21
-0.01
0.71

> <PUBCHEM_SHAPE_SELFOVERLAP>
856.39

> <PUBCHEM_SHAPE_VOLUME>
201.3

> <PUBCHEM_COORDINATE_TYPE>
2
5
10

> <minimizedAffinity>
-3.90798

> <CNNscore>
0.5078046322

> <CNNaffinity>
4.0720224380

> <CNN_VS>
2.0677919388

> <CNNaffinity_variance>
0.1609466672

$$$$
5280443


 23 25  0  0  0  0  0  0  0  0999 V2000
  -22.8819   -3.8357    9.3818 O   0  0  0  0  0  0  0  0  0  0  0  0
  -21.8482   -6.0884   13.5475 O   0  0  0  0  0  0  0  0  0  0  0  0
  -24.2812   -5.9424   12.5760 O   0  0  0  0  0  0  0  0  0  0  0  0
  -18.4231   -4.0013   11.0042 O   0  0  0  0  0  0  0  0  0  0  0  0
  -22.4250   -4.9795   11.4754 C   0  0  0  0  0  0  0  0  0  0  0  0
  -22.0138   -4.2546   10.3581 C   0  0  0  0  0  0  0  0  0  0  0  0
  -24.2251   -4.1551    9.5109 C   0  0  0  0  0  0  0  0  0  0  0  0
  -23.8503   -5.3122   11.6202 C   0  0  0  0  0  0  0  0  0  0  0  0
  -24.7431   -4.8410   10.5421 C   0  0  0  0  0  0  0  0  0  0  0  0
  -21.4964   -5.3796   12.4389 C   0  0  0  0  0  0  0  0  0  0  0  0
  -20.6680   -3.9245   10.1978 C   0  0  0  0  0  0  0  0  0  0  0  0
  -19.7372   -4.3224   11.1578 C   0  0  0  0  0  0  0  0  0  0  0  0
  -20.1507   -5.0483   12.2758 C   0  0  0  0  0  0  0  0  0  0  0  0
  -22.7437   -6.3267   13.6866 H   0  0  0  0  0  0  0  0  0  0  0  0
  -18.1445   -3.5140   10.2540 H   0  0  0  0  0  0  0  0  0  0  0  0
  -27.4478   -2.2308    5.3125 O   0  0  0  0  0  0  0  0  0  0  0  0
  -25.0700   -3.6513    8.4096 C   0  0  0  0  0  0  0  0  0  0  0  0
  -26.4565   -3.8155    8.4574 C   0  0  0  0  0  0  0  0  0  0  0  0
  -24.4867   -3.0072    7.3159 C   0  0  0  0  0  0  0  0  0  0  0  0
  -27.2547   -3.3390    7.4175 C   0  0  0  0  0  0  0  0  0  0  0  0
  -25.2850   -2.5303    6.2761 C   0  0  0  0  0  0  0  0  0  0  0  0
  -26.6691   -2.6964    6.3268 C   0  0  0  0  0  0  0  0  0  0  0  0
  -28.3775   -2.3424    5.3465 H   0  0  0  0  0  0  0  0  0  0  0  0
  1  6  1  0  0  0
  1  7  1  0  0  0
  2 10  1  0  0  0
  3  8  2  0  0  0
  4 12  1  0  0  0
 16 22  1  0  0  0
  5  6  1  0  0  0
  5  8  1  0  0  0
  5 10  2  0  0  0
  6 11  2  0  0  0
  7 17  1  0  0  0
  7  9  2  0  0  0
 17 18  1  0  0  0
 17 19  2  0  0  0
  8  9  1  0  0  0
 10 13  1  0  0  0
 11 12  1  0  0  0
 12 13  2  0  0  0
 18 20  2  0  0  0
 19 21  1  0  0  0
 20 22  1  0  0  0
 21 22  2  0  0  0
  2 14  1  0  0  0
  4 15  1  0  0  0
 16 23  1  0  0  0
M  END
> <PUBCHEM_COMPOUND_CID>
5280443

> <PUBCHEM_CONFORMER_RMSD>
0.6

> <PUBCHEM_CONFORMER_DIVERSEORDER>
1

> <PUBCHEM_MMFF94_PARTIAL_CHARGES>
30
1 -0.16
10 0.47
11 -0.14
12 0.08
13 -0.15
14 0.08
15 -0.15
16 -0.15
17 -0.15
18 -0.15
19 -0.15
2 -0.53
20 0.08
21 0.15
22 0.15
23 0.15
24 0.15
25 0.15
26 0.15
27 0.15
28 0.45
29 0.45
3 -0.57
30 0.45
4 -0.53
5 -0.53
6 0.09
7 0.08
8 0.05
9 0.03

> <PUBCHEM_EFFECTIVE_ROTOR_COUNT>
1

> <PUBCHEM_PHARMACOPHORE_FEATURES>
8
1 1 acceptor
1 2 donor
1 3 acceptor
1 4 donor
1 5 donor
6 1 6 7 8 10 11 rings
6 6 7 12 13 14 15 rings
6 9 16 17 18 19 20 rings

> <PUBCHEM_HEAVY_ATOM_COUNT>
20

> <PUBCHEM_ATOM_DEF_STEREO_COUNT>
0

> <PUBCHEM_ATOM_UDEF_STEREO_COUNT>
0

> <PUBCHEM_BOND_DEF_STEREO_COUNT>
0

> <PUBCHEM_BOND_UDEF_STEREO_COUNT>
0

> <PUBCHEM_ISOTOPIC_ATOM_COUNT>
0

> <PUBCHEM_COMPONENT_COUNT>
1

> <PUBCHEM_CACTVS_TAUTO_COUNT>
57

> <PUBCHEM_CONFORMER_ID>
005092BB00000001

> <PUBCHEM_MMFF94_ENERGY>
60.7436

> <PUBCHEM_FEATURE_SELFOVERLAP>
40.625

> <PUBCHEM_SHAPE_FINGERPRINT>
10014705 185 18335983090743610973
10319926 262 18339344337187947850
10411042 1 17833271196427205891
10493431 412 18339369544277550625
10498660 4 18336260146151624709
10608611 8 18342173405853837512
10646746 165 18410292501880224548
11315181 36 17967532415338923724
12107183 9 17973996255225508682
12173636 292 18409726227717107541
12236239 1 17458341966376888130
12390115 104 18270696268119625369
12403259 415 18202279234227041088
12500047 106 18411979165633848254
13073987 5 18334573538601782738
13140716 1 17974859676764465403
13544592 145 18269848531875060550
14508225 48 18124582335750861655
14790565 3 17908712730609502257
15042514 8 18192436496683379403
15196674 1 18411138009184468990
15375358 24 18272089392275024390
17844677 252 18338524131077601056
18186145 218 18201727210401115800
200 152 17060622204808618226
20510252 161 18342459253144016673
20645477 56 18410013234284757832
20645477 70 17203058396143606462
21033648 29 18271516554985427096
21065198 57 18411699920035301594
21236236 1 18412826893710328947
21267235 1 18337116777299593123
21279426 13 18269277859449011198
21421861 104 17750502976618702298
23402539 116 18412538829647092654
23402655 69 18131067100338114972
23557571 272 18342746247148492668
23559900 14 18271807861775124550
245318 6 16448986100328701468
283562 15 18410291424461079675
2916195 48 18342730849902058064
3004659 81 18335425613612532158
335352 9 18267022748231475478
350125 39 18410298038462750009
3545911 37 18342460348455732712
4028521 119 18341892965631935697
4214541 1 18411419514231212472
474 4 16879077545412114420
495365 180 17346021334593014002
5104073 3 18410011005465809410
542803 24 17530686524359763644
559249 180 18337386046670377618
633830 44 18199743644401676445
69090 78 18272086119177836790
77779 3 18412263930592437412
9709674 26 18342463655380539086

> <PUBCHEM_SHAPE_MULTIPOLES>
382.24
10.96
2.41
0.66
9.09
0.24
0
-3.75
0.48
-2.84
-0.06
0.21
-0.01
0.71

> <PUBCHEM_SHAPE_SELFOVERLAP>
856.39

> <PUBCHEM_SHAPE_VOLUME>
201.3

> <PUBCHEM_COORDINATE_TYPE>
2
5
10

> <minimizedAffinity>
-3.36948

> <CNNscore>
0.4515990913

> <CNNaffinity>
4.4331712723

> <CNN_VS>
2.0020160675

> <CNNaffinity_variance>
0.3699601293

$$$$
5280443


 23 25  0  0  0  0  0  0  0  0999 V2000
  -24.0943   -4.9784   16.9563 O   0  0  0  0  0  0  0  0  0  0  0  0
  -19.9793   -2.7369   18.1969 O   0  0  0  0  0  0  0  0  0  0  0  0
  -20.4687   -3.5606   15.7543 O   0  0  0  0  0  0  0  0  0  0  0  0
  -23.3628   -3.5578   21.4270 O   0  0  0  0  0  0  0  0  0  0  0  0
  -22.0127   -3.8597   17.5180 C   0  0  0  0  0  0  0  0  0  0  0  0
  -23.2642   -4.3678   17.8620 C   0  0  0  0  0  0  0  0  0  0  0  0
  -23.6704   -5.0867   15.6404 C   0  0  0  0  0  0  0  0  0  0  0  0
  -21.5559   -3.9809   16.1252 C   0  0  0  0  0  0  0  0  0  0  0  0
  -22.4863   -4.6435   15.1888 C   0  0  0  0  0  0  0  0  0  0  0  0
  -21.2090   -3.2481   18.4828 C   0  0  0  0  0  0  0  0  0  0  0  0
  -23.7202   -4.2673   19.1765 C   0  0  0  0  0  0  0  0  0  0  0  0
  -22.9206   -3.6570   20.1432 C   0  0  0  0  0  0  0  0  0  0  0  0
  -21.6678   -3.1486   19.7969 C   0  0  0  0  0  0  0  0  0  0  0  0
  -19.6422   -2.7878   17.3241 H   0  0  0  0  0  0  0  0  0  0  0  0
  -24.2038   -3.8988   21.6605 H   0  0  0  0  0  0  0  0  0  0  0  0
  -27.3532   -7.6711   12.2532 O   0  0  0  0  0  0  0  0  0  0  0  0
  -24.6365   -5.7646   14.7529 C   0  0  0  0  0  0  0  0  0  0  0  0
  -25.7534   -5.0751   14.2746 C   0  0  0  0  0  0  0  0  0  0  0  0
  -24.4371   -7.0979   14.3868 C   0  0  0  0  0  0  0  0  0  0  0  0
  -26.6656   -5.7153   13.4357 C   0  0  0  0  0  0  0  0  0  0  0  0
  -25.3492   -7.7379   13.5476 C   0  0  0  0  0  0  0  0  0  0  0  0
  -26.4636   -7.0466   13.0722 C   0  0  0  0  0  0  0  0  0  0  0  0
  -28.1018   -7.2068   11.9338 H   0  0  0  0  0  0  0  0  0  0  0  0
  1  6  1  0  0  0
  1  7  1  0  0  0
  2 10  1  0  0  0
  3  8  2  0  0  0
  4 12  1  0  0  0
 16 22  1  0  0  0
  5  6  1  0  0  0
  5  8  1  0  0  0
  5 10  2  0  0  0
  6 11  2  0  0  0
  7 17  1  0  0  0
  7  9  2  0  0  0
 17 18  1  0  0  0
 17 19  2  0  0  0
  8  9  1  0  0  0
 10 13  1  0  0  0
 11 12  1  0  0  0
 12 13  2  0  0  0
 18 20  2  0  0  0
 19 21  1  0  0  0
 20 22  1  0  0  0
 21 22  2  0  0  0
  2 14  1  0  0  0
  4 15  1  0  0  0
 16 23  1  0  0  0
M  END
> <PUBCHEM_COMPOUND_CID>
5280443

> <PUBCHEM_CONFORMER_RMSD>
0.6

> <PUBCHEM_CONFORMER_DIVERSEORDER>
1

> <PUBCHEM_MMFF94_PARTIAL_CHARGES>
30
1 -0.16
10 0.47
11 -0.14
12 0.08
13 -0.15
14 0.08
15 -0.15
16 -0.15
17 -0.15
18 -0.15
19 -0.15
2 -0.53
20 0.08
21 0.15
22 0.15
23 0.15
24 0.15
25 0.15
26 0.15
27 0.15
28 0.45
29 0.45
3 -0.57
30 0.45
4 -0.53
5 -0.53
6 0.09
7 0.08
8 0.05
9 0.03

> <PUBCHEM_EFFECTIVE_ROTOR_COUNT>
1

> <PUBCHEM_PHARMACOPHORE_FEATURES>
8
1 1 acceptor
1 2 donor
1 3 acceptor
1 4 donor
1 5 donor
6 1 6 7 8 10 11 rings
6 6 7 12 13 14 15 rings
6 9 16 17 18 19 20 rings

> <PUBCHEM_HEAVY_ATOM_COUNT>
20

> <PUBCHEM_ATOM_DEF_STEREO_COUNT>
0

> <PUBCHEM_ATOM_UDEF_STEREO_COUNT>
0

> <PUBCHEM_BOND_DEF_STEREO_COUNT>
0

> <PUBCHEM_BOND_UDEF_STEREO_COUNT>
0

> <PUBCHEM_ISOTOPIC_ATOM_COUNT>
0

> <PUBCHEM_COMPONENT_COUNT>
1

> <PUBCHEM_CACTVS_TAUTO_COUNT>
57

> <PUBCHEM_CONFORMER_ID>
005092BB00000001

> <PUBCHEM_MMFF94_ENERGY>
60.7436

> <PUBCHEM_FEATURE_SELFOVERLAP>
40.625

> <PUBCHEM_SHAPE_FINGERPRINT>
10014705 185 18335983090743610973
10319926 262 18339344337187947850
10411042 1 17833271196427205891
10493431 412 18339369544277550625
10498660 4 18336260146151624709
10608611 8 18342173405853837512
10646746 165 18410292501880224548
11315181 36 17967532415338923724
12107183 9 17973996255225508682
12173636 292 18409726227717107541
12236239 1 17458341966376888130
12390115 104 18270696268119625369
12403259 415 18202279234227041088
12500047 106 18411979165633848254
13073987 5 18334573538601782738
13140716 1 17974859676764465403
13544592 145 18269848531875060550
14508225 48 18124582335750861655
14790565 3 17908712730609502257
15042514 8 18192436496683379403
15196674 1 18411138009184468990
15375358 24 18272089392275024390
17844677 252 18338524131077601056
18186145 218 18201727210401115800
200 152 17060622204808618226
20510252 161 18342459253144016673
20645477 56 18410013234284757832
20645477 70 17203058396143606462
21033648 29 18271516554985427096
21065198 57 18411699920035301594
21236236 1 18412826893710328947
21267235 1 18337116777299593123
21279426 13 18269277859449011198
21421861 104 17750502976618702298
23402539 116 18412538829647092654
23402655 69 18131067100338114972
23557571 272 18342746247148492668
23559900 14 18271807861775124550
245318 6 16448986100328701468
283562 15 18410291424461079675
2916195 48 18342730849902058064
3004659 81 18335425613612532158
335352 9 18267022748231475478
350125 39 18410298038462750009
3545911 37 18342460348455732712
4028521 119 18341892965631935697
4214541 1 18411419514231212472
474 4 16879077545412114420
495365 180 17346021334593014002
5104073 3 18410011005465809410
542803 24 17530686524359763644
559249 180 18337386046670377618
633830 44 18199743644401676445
69090 78 18272086119177836790
77779 3 18412263930592437412
9709674 26 18342463655380539086

> <PUBCHEM_SHAPE_MULTIPOLES>
382.24
10.96
2.41
0.66
9.09
0.24
0
-3.75
0.48
-2.84
-0.06
0.21
-0.01
0.71

> <PUBCHEM_SHAPE_SELFOVERLAP>
856.39

> <PUBCHEM_SHAPE_VOLUME>
201.3

> <PUBCHEM_COORDINATE_TYPE>
2
5
10

> <minimizedAffinity>
62.14182

> <CNNscore>
0.4091034532

> <CNNaffinity>
3.9009375572

> <CNN_VS>
1.5958870649

> <CNNaffinity_variance>
0.3414192796

$$$$
5280443


 23 25  0  0  0  0  0  0  0  0999 V2000
  -23.4524   -1.7932   11.3679 O   0  0  0  0  0  0  0  0  0  0  0  0
  -26.9782    1.4346   12.1717 O   0  0  0  0  0  0  0  0  0  0  0  0
  -27.4576   -1.0622   11.5231 O   0  0  0  0  0  0  0  0  0  0  0  0
  -22.4122    2.6921   12.5258 O   0  0  0  0  0  0  0  0  0  0  0  0
  -25.2620   -0.2209   11.7594 C   0  0  0  0  0  0  0  0  0  0  0  0
  -23.9068   -0.5387   11.6873 C   0  0  0  0  0  0  0  0  0  0  0  0
  -24.3842   -2.7882   11.1136 C   0  0  0  0  0  0  0  0  0  0  0  0
  -26.2531   -1.2714   11.4813 C   0  0  0  0  0  0  0  0  0  0  0  0
  -25.7137   -2.6046   11.1448 C   0  0  0  0  0  0  0  0  0  0  0  0
  -25.6673    1.0745   12.0889 C   0  0  0  0  0  0  0  0  0  0  0  0
  -22.9465    0.4398   11.9447 C   0  0  0  0  0  0  0  0  0  0  0  0
  -23.3471    1.7349   12.2745 C   0  0  0  0  0  0  0  0  0  0  0  0
  -24.7046    2.0513   12.3463 C   0  0  0  0  0  0  0  0  0  0  0  0
  -27.6493    0.8023   12.0047 H   0  0  0  0  0  0  0  0  0  0  0  0
  -21.5006    2.4806   12.4778 H   0  0  0  0  0  0  0  0  0  0  0  0
  -22.1083   -7.7740    9.8185 O   0  0  0  0  0  0  0  0  0  0  0  0
  -23.7878   -4.0959   10.7746 C   0  0  0  0  0  0  0  0  0  0  0  0
  -24.3858   -4.9109    9.8104 C   0  0  0  0  0  0  0  0  0  0  0  0
  -22.6225   -4.5231   11.4157 C   0  0  0  0  0  0  0  0  0  0  0  0
  -23.8222   -6.1459    9.4897 C   0  0  0  0  0  0  0  0  0  0  0  0
  -22.0587   -5.7579   11.0947 C   0  0  0  0  0  0  0  0  0  0  0  0
  -22.6587   -6.5695   10.1318 C   0  0  0  0  0  0  0  0  0  0  0  0
  -22.5112   -8.3192    9.1717 H   0  0  0  0  0  0  0  0  0  0  0  0
  1  6  1  0  0  0
  1  7  1  0  0  0
  2 10  1  0  0  0
  3  8  2  0  0  0
  4 12  1  0  0  0
 16 22  1  0  0  0
  5  6  1  0  0  0
  5  8  1  0  0  0
  5 10  2  0  0  0
  6 11  2  0  0  0
  7 17  1  0  0  0
  7  9  2  0  0  0
 17 18  1  0  0  0
 17 19  2  0  0  0
  8  9  1  0  0  0
 10 13  1  0  0  0
 11 12  1  0  0  0
 12 13  2  0  0  0
 18 20  2  0  0  0
 19 21  1  0  0  0
 20 22  1  0  0  0
 21 22  2  0  0  0
  2 14  1  0  0  0
  4 15  1  0  0  0
 16 23  1  0  0  0
M  END
> <PUBCHEM_COMPOUND_CID>
5280443

> <PUBCHEM_CONFORMER_RMSD>
0.6

> <PUBCHEM_CONFORMER_DIVERSEORDER>
1

> <PUBCHEM_MMFF94_PARTIAL_CHARGES>
30
1 -0.16
10 0.47
11 -0.14
12 0.08
13 -0.15
14 0.08
15 -0.15
16 -0.15
17 -0.15
18 -0.15
19 -0.15
2 -0.53
20 0.08
21 0.15
22 0.15
23 0.15
24 0.15
25 0.15
26 0.15
27 0.15
28 0.45
29 0.45
3 -0.57
30 0.45
4 -0.53
5 -0.53
6 0.09
7 0.08
8 0.05
9 0.03

> <PUBCHEM_EFFECTIVE_ROTOR_COUNT>
1

> <PUBCHEM_PHARMACOPHORE_FEATURES>
8
1 1 acceptor
1 2 donor
1 3 acceptor
1 4 donor
1 5 donor
6 1 6 7 8 10 11 rings
6 6 7 12 13 14 15 rings
6 9 16 17 18 19 20 rings

> <PUBCHEM_HEAVY_ATOM_COUNT>
20

> <PUBCHEM_ATOM_DEF_STEREO_COUNT>
0

> <PUBCHEM_ATOM_UDEF_STEREO_COUNT>
0

> <PUBCHEM_BOND_DEF_STEREO_COUNT>
0

> <PUBCHEM_BOND_UDEF_STEREO_COUNT>
0

> <PUBCHEM_ISOTOPIC_ATOM_COUNT>
0

> <PUBCHEM_COMPONENT_COUNT>
1

> <PUBCHEM_CACTVS_TAUTO_COUNT>
57

> <PUBCHEM_CONFORMER_ID>
005092BB00000001

> <PUBCHEM_MMFF94_ENERGY>
60.7436

> <PUBCHEM_FEATURE_SELFOVERLAP>
40.625

> <PUBCHEM_SHAPE_FINGERPRINT>
10014705 185 18335983090743610973
10319926 262 18339344337187947850
10411042 1 17833271196427205891
10493431 412 18339369544277550625
10498660 4 18336260146151624709
10608611 8 18342173405853837512
10646746 165 18410292501880224548
11315181 36 17967532415338923724
12107183 9 17973996255225508682
12173636 292 18409726227717107541
12236239 1 17458341966376888130
12390115 104 18270696268119625369
12403259 415 18202279234227041088
12500047 106 18411979165633848254
13073987 5 18334573538601782738
13140716 1 17974859676764465403
13544592 145 18269848531875060550
14508225 48 18124582335750861655
14790565 3 17908712730609502257
15042514 8 18192436496683379403
15196674 1 18411138009184468990
15375358 24 18272089392275024390
17844677 252 18338524131077601056
18186145 218 18201727210401115800
200 152 17060622204808618226
20510252 161 18342459253144016673
20645477 56 18410013234284757832
20645477 70 17203058396143606462
21033648 29 18271516554985427096
21065198 57 18411699920035301594
21236236 1 18412826893710328947
21267235 1 18337116777299593123
21279426 13 18269277859449011198
21421861 104 17750502976618702298
23402539 116 18412538829647092654
23402655 69 18131067100338114972
23557571 272 18342746247148492668
23559900 14 18271807861775124550
245318 6 16448986100328701468
283562 15 18410291424461079675
2916195 48 18342730849902058064
3004659 81 18335425613612532158
335352 9 18267022748231475478
350125 39 18410298038462750009
3545911 37 18342460348455732712
4028521 119 18341892965631935697
4214541 1 18411419514231212472
474 4 16879077545412114420
495365 180 17346021334593014002
5104073 3 18410011005465809410
542803 24 17530686524359763644
559249 180 18337386046670377618
633830 44 18199743644401676445
69090 78 18272086119177836790
77779 3 18412263930592437412
9709674 26 18342463655380539086

> <PUBCHEM_SHAPE_MULTIPOLES>
382.24
10.96
2.41
0.66
9.09
0.24
0
-3.75
0.48
-2.84
-0.06
0.21
-0.01
0.71

> <PUBCHEM_SHAPE_SELFOVERLAP>
856.39

> <PUBCHEM_SHAPE_VOLUME>
201.3

> <PUBCHEM_COORDINATE_TYPE>
2
5
10

> <minimizedAffinity>
-3.99531

> <CNNscore>
0.4003264010

> <CNNaffinity>
4.1410737038

> <CNN_VS>
1.6577811241

> <CNNaffinity_variance>
0.2111173570

$$$$
