5281654


 27 29  0  0  0  0  0  0  0  0999 V2000
  -20.2998   -1.7795   11.8514 O   0  0  0  0  0  0  0  0  0  0  0  0
  -19.0702   -4.8966   10.3153 O   0  0  0  0  0  0  0  0  0  0  0  0
  -15.8302   -0.7866   10.2625 O   0  0  0  0  0  0  0  0  0  0  0  0
  -16.9429   -3.1361    9.9819 O   0  0  0  0  0  0  0  0  0  0  0  0
  -18.4293    2.5447   12.4285 O   0  0  0  0  0  0  0  0  0  0  0  0
  -18.0561   -1.3434   11.0349 C   0  0  0  0  0  0  0  0  0  0  0  0
  -20.1992   -3.0879   11.4055 C   0  0  0  0  0  0  0  0  0  0  0  0
  -19.2319   -0.9406   11.6640 C   0  0  0  0  0  0  0  0  0  0  0  0
  -19.1254   -3.5990   10.7760 C   0  0  0  0  0  0  0  0  0  0  0  0
  -17.9482   -2.7269   10.5472 C   0  0  0  0  0  0  0  0  0  0  0  0
  -16.9998   -0.4437   10.8704 C   0  0  0  0  0  0  0  0  0  0  0  0
  -19.3597    0.3670   12.1332 C   0  0  0  0  0  0  0  0  0  0  0  0
  -18.3073    1.2682   11.9712 C   0  0  0  0  0  0  0  0  0  0  0  0
  -17.1298    0.8635   11.3412 C   0  0  0  0  0  0  0  0  0  0  0  0
  -19.7988   -5.4713   10.4451 H   0  0  0  0  0  0  0  0  0  0  0  0
  -15.7099   -1.6562    9.9349 H   0  0  0  0  0  0  0  0  0  0  0  0
  -19.2197    2.8173   12.8517 H   0  0  0  0  0  0  0  0  0  0  0  0
  -24.8300   -6.1194   12.4160 O   0  0  0  0  0  0  0  0  0  0  0  0
  -21.4141   -3.8798   11.6682 C   0  0  0  0  0  0  0  0  0  0  0  0
  -22.6351   -3.4882   11.1183 C   0  0  0  0  0  0  0  0  0  0  0  0
  -21.3440   -5.0214   12.4672 C   0  0  0  0  0  0  0  0  0  0  0  0
  -23.7849   -4.2376   11.3672 C   0  0  0  0  0  0  0  0  0  0  0  0
  -22.4937   -5.7707   12.7160 C   0  0  0  0  0  0  0  0  0  0  0  0
  -23.7141   -5.3789   12.1660 C   0  0  0  0  0  0  0  0  0  0  0  0
  -25.6538   -5.8632   12.0504 H   0  0  0  0  0  0  0  0  0  0  0  0
  -24.9712   -3.8447   10.8245 O   0  0  0  0  0  0  0  0  0  0  0  0
  -25.2056   -4.1890    9.4606 C   0  0  0  0  0  0  0  0  0  0  0  0
  1  7  1  0  0  0
  1  8  1  0  0  0
  2  9  1  0  0  0
  3 11  1  0  0  0
 26 22  1  0  0  0
 26 27  1  0  0  0
  4 10  2  0  0  0
  5 13  1  0  0  0
 18 24  1  0  0  0
  6  8  1  0  0  0
  6 10  1  0  0  0
  6 11  2  0  0  0
  7 19  1  0  0  0
  7  9  2  0  0  0
  8 12  2  0  0  0
 19 20  2  0  0  0
 19 21  1  0  0  0
  9 10  1  0  0  0
 11 14  1  0  0  0
 12 13  1  0  0  0
 20 22  1  0  0  0
 21 23  2  0  0  0
 13 14  2  0  0  0
 22 24  2  0  0  0
 23 24  1  0  0  0
  2 15  1  0  0  0
  3 16  1  0  0  0
  5 17  1  0  0  0
 18 25  1  0  0  0
M  END
> <PUBCHEM_COMPOUND_CID>
5281654

> <PUBCHEM_CONFORMER_RMSD>
0.6

> <PUBCHEM_CONFORMER_DIVERSEORDER>
1
5
3
4
2
6

> <PUBCHEM_MMFF94_PARTIAL_CHARGES>
32
1 -0.16
10 0.08
11 0.03
12 0.09
13 0.47
14 0.08
15 -0.15
16 -0.15
17 -0.15
18 0.08
19 -0.15
2 -0.53
20 0.08
21 -0.15
22 0.08
23 0.28
24 0.15
25 0.15
26 0.15
27 0.15
28 0.15
29 0.45
3 -0.53
30 0.45
31 0.45
32 0.45
4 -0.36
5 -0.57
6 -0.53
7 -0.53
8 0.09
9 0.05

> <PUBCHEM_EFFECTIVE_ROTOR_COUNT>
2

> <PUBCHEM_PHARMACOPHORE_FEATURES>
10
1 1 acceptor
1 2 donor
1 3 donor
1 4 acceptor
1 5 acceptor
1 6 donor
1 7 donor
6 1 8 9 10 12 13 rings
6 11 16 17 20 21 22 rings
6 8 10 14 15 18 19 rings

> <PUBCHEM_HEAVY_ATOM_COUNT>
23

> <PUBCHEM_ATOM_DEF_STEREO_COUNT>
0

> <PUBCHEM_ATOM_UDEF_STEREO_COUNT>
0

> <PUBCHEM_BOND_DEF_STEREO_COUNT>
0

> <PUBCHEM_BOND_UDEF_STEREO_COUNT>
0

> <PUBCHEM_ISOTOPIC_ATOM_COUNT>
0

> <PUBCHEM_COMPONENT_COUNT>
1

> <PUBCHEM_CACTVS_TAUTO_COUNT>
174

> <PUBCHEM_CONFORMER_ID>
0050977600000001

> <PUBCHEM_MMFF94_ENERGY>
79.2051

> <PUBCHEM_FEATURE_SELFOVERLAP>
50.776

> <PUBCHEM_SHAPE_FINGERPRINT>
10062212 137 18113622287585563379
10319926 262 18269822139585817994
10912923 1 17748829630820060926
11045977 3 18059851753434025776
11370993 144 17060070194036718571
11545043 162 18200879479032149878
12236239 1 17676494921566363222
12403259 415 17847062173215408214
12553582 1 18335427884821855155
12616971 3 17022621948759430219
13140716 1 18339647836567301017
13583140 156 18057304129690565606
13675066 3 17989770003112852359
13782708 43 17846222120747224302
14386348 63 17917435298027703270
15099037 37 18342172271760775893
15196674 1 18410580625471844157
15880784 105 16630519635548229719
15961568 22 18337952406923316588
17349148 13 17385443206998959762
17804303 29 18412830192023841585
17844677 252 16773802476157885616
1813 80 17749382710959975756
18186145 218 12179842792603919972
18222031 100 18340768238198495582
18681886 176 18335150825662037830
18785283 64 17772739709720941576
19141452 34 17846503664401063959
200 152 16370444436453271268
20028762 73 18056765549377431463
20600515 1 18411980239160115549
21033648 29 17346306077354145402
21065201 7 18340491054284406198
21267235 1 18336558191713374555
21728266 224 18187917383106134411
22646028 1 17749107785829301714
2297311 6 18341344326599170286
23366157 5 17825394238932236213
23402539 116 18409451370947539359
23557571 272 18272095937768416228
23559900 14 18270692948104364902
2838139 119 14907068037669751649
3004659 81 18040720298228782630
335352 9 18409733972302641509
3411729 13 18195244653665228040
474 4 16951991646107380036
5104073 3 18267596891328301203
573450 72 18186800262006735147
59682541 52 13696686192307217867
602551 16 18411418410440623730
633830 44 14045741569256280724
67856867 119 18114467876526160340
7495541 125 17988927765149223126
77492 1 17531256019658734332
9709674 26 18120661489965261995

> <PUBCHEM_SHAPE_MULTIPOLES>
432.24
11.81
2.28
1.32
4.57
0.58
0.2
-4.2
2.84
-3.49
0.02
2.76
-0.07
0.86

> <PUBCHEM_SHAPE_SELFOVERLAP>
961.999

> <PUBCHEM_SHAPE_VOLUME>
229.3

> <PUBCHEM_COORDINATE_TYPE>
2
5
10

> <minimizedAffinity>
-6.62445

> <CNNscore>
0.6404221058

> <CNNaffinity>
5.1485505104

> <CNN_VS>
3.2972455025

> <CNNaffinity_variance>
0.2014287263

$$$$
5281654


 27 29  0  0  0  0  0  0  0  0999 V2000
  -22.0083   -2.1627   13.0188 O   0  0  0  0  0  0  0  0  0  0  0  0
  -18.4319   -3.0519   12.9377 O   0  0  0  0  0  0  0  0  0  0  0  0
  -21.4443   -4.9834    9.1184 O   0  0  0  0  0  0  0  0  0  0  0  0
  -19.4642   -4.3464   10.7028 O   0  0  0  0  0  0  0  0  0  0  0  0
  -25.7116   -3.2360   10.2502 O   0  0  0  0  0  0  0  0  0  0  0  0
  -21.6625   -3.5795   11.0786 C   0  0  0  0  0  0  0  0  0  0  0  0
  -20.6571   -2.2508   13.3141 C   0  0  0  0  0  0  0  0  0  0  0  0
  -22.4802   -2.8192   11.9116 C   0  0  0  0  0  0  0  0  0  0  0  0
  -19.7642   -2.9579   12.5977 C   0  0  0  0  0  0  0  0  0  0  0  0
  -20.2300   -3.6882   11.3942 C   0  0  0  0  0  0  0  0  0  0  0  0
  -22.1995   -4.2282    9.9636 C   0  0  0  0  0  0  0  0  0  0  0  0
  -23.8426   -2.7026   11.6350 C   0  0  0  0  0  0  0  0  0  0  0  0
  -24.3825   -3.3484   10.5226 C   0  0  0  0  0  0  0  0  0  0  0  0
  -23.5624   -4.1095    9.6886 C   0  0  0  0  0  0  0  0  0  0  0  0
  -18.1082   -2.6015   13.6929 H   0  0  0  0  0  0  0  0  0  0  0  0
  -20.5258   -5.0840    9.2740 H   0  0  0  0  0  0  0  0  0  0  0  0
  -26.2629   -2.7251   10.8097 H   0  0  0  0  0  0  0  0  0  0  0  0
  -19.2293    0.6206   17.9369 O   0  0  0  0  0  0  0  0  0  0  0  0
  -20.2837   -1.5015   14.5270 C   0  0  0  0  0  0  0  0  0  0  0  0
  -20.3194   -2.1279   15.7731 C   0  0  0  0  0  0  0  0  0  0  0  0
  -19.8945   -0.1653   14.4297 C   0  0  0  0  0  0  0  0  0  0  0  0
  -19.9662   -1.4185   16.9210 C   0  0  0  0  0  0  0  0  0  0  0  0
  -19.5412    0.5440   15.5776 C   0  0  0  0  0  0  0  0  0  0  0  0
  -19.5771   -0.0826   16.8231 C   0  0  0  0  0  0  0  0  0  0  0  0
  -19.2505    0.2074   18.7775 H   0  0  0  0  0  0  0  0  0  0  0  0
  -20.0052   -2.0414   18.1320 O   0  0  0  0  0  0  0  0  0  0  0  0
  -21.1240   -1.7591   18.9702 C   0  0  0  0  0  0  0  0  0  0  0  0
  1  7  1  0  0  0
  1  8  1  0  0  0
  2  9  1  0  0  0
  3 11  1  0  0  0
 26 22  1  0  0  0
 26 27  1  0  0  0
  4 10  2  0  0  0
  5 13  1  0  0  0
 18 24  1  0  0  0
  6  8  1  0  0  0
  6 10  1  0  0  0
  6 11  2  0  0  0
  7 19  1  0  0  0
  7  9  2  0  0  0
  8 12  2  0  0  0
 19 20  2  0  0  0
 19 21  1  0  0  0
  9 10  1  0  0  0
 11 14  1  0  0  0
 12 13  1  0  0  0
 20 22  1  0  0  0
 21 23  2  0  0  0
 13 14  2  0  0  0
 22 24  2  0  0  0
 23 24  1  0  0  0
  2 15  1  0  0  0
  3 16  1  0  0  0
  5 17  1  0  0  0
 18 25  1  0  0  0
M  END
> <PUBCHEM_COMPOUND_CID>
5281654

> <PUBCHEM_CONFORMER_RMSD>
0.6

> <PUBCHEM_CONFORMER_DIVERSEORDER>
1
5
3
4
2
6

> <PUBCHEM_MMFF94_PARTIAL_CHARGES>
32
1 -0.16
10 0.08
11 0.03
12 0.09
13 0.47
14 0.08
15 -0.15
16 -0.15
17 -0.15
18 0.08
19 -0.15
2 -0.53
20 0.08
21 -0.15
22 0.08
23 0.28
24 0.15
25 0.15
26 0.15
27 0.15
28 0.15
29 0.45
3 -0.53
30 0.45
31 0.45
32 0.45
4 -0.36
5 -0.57
6 -0.53
7 -0.53
8 0.09
9 0.05

> <PUBCHEM_EFFECTIVE_ROTOR_COUNT>
2

> <PUBCHEM_PHARMACOPHORE_FEATURES>
10
1 1 acceptor
1 2 donor
1 3 donor
1 4 acceptor
1 5 acceptor
1 6 donor
1 7 donor
6 1 8 9 10 12 13 rings
6 11 16 17 20 21 22 rings
6 8 10 14 15 18 19 rings

> <PUBCHEM_HEAVY_ATOM_COUNT>
23

> <PUBCHEM_ATOM_DEF_STEREO_COUNT>
0

> <PUBCHEM_ATOM_UDEF_STEREO_COUNT>
0

> <PUBCHEM_BOND_DEF_STEREO_COUNT>
0

> <PUBCHEM_BOND_UDEF_STEREO_COUNT>
0

> <PUBCHEM_ISOTOPIC_ATOM_COUNT>
0

> <PUBCHEM_COMPONENT_COUNT>
1

> <PUBCHEM_CACTVS_TAUTO_COUNT>
174

> <PUBCHEM_CONFORMER_ID>
0050977600000001

> <PUBCHEM_MMFF94_ENERGY>
79.2051

> <PUBCHEM_FEATURE_SELFOVERLAP>
50.776

> <PUBCHEM_SHAPE_FINGERPRINT>
10062212 137 18113622287585563379
10319926 262 18269822139585817994
10912923 1 17748829630820060926
11045977 3 18059851753434025776
11370993 144 17060070194036718571
11545043 162 18200879479032149878
12236239 1 17676494921566363222
12403259 415 17847062173215408214
12553582 1 18335427884821855155
12616971 3 17022621948759430219
13140716 1 18339647836567301017
13583140 156 18057304129690565606
13675066 3 17989770003112852359
13782708 43 17846222120747224302
14386348 63 17917435298027703270
15099037 37 18342172271760775893
15196674 1 18410580625471844157
15880784 105 16630519635548229719
15961568 22 18337952406923316588
17349148 13 17385443206998959762
17804303 29 18412830192023841585
17844677 252 16773802476157885616
1813 80 17749382710959975756
18186145 218 12179842792603919972
18222031 100 18340768238198495582
18681886 176 18335150825662037830
18785283 64 17772739709720941576
19141452 34 17846503664401063959
200 152 16370444436453271268
20028762 73 18056765549377431463
20600515 1 18411980239160115549
21033648 29 17346306077354145402
21065201 7 18340491054284406198
21267235 1 18336558191713374555
21728266 224 18187917383106134411
22646028 1 17749107785829301714
2297311 6 18341344326599170286
23366157 5 17825394238932236213
23402539 116 18409451370947539359
23557571 272 18272095937768416228
23559900 14 18270692948104364902
2838139 119 14907068037669751649
3004659 81 18040720298228782630
335352 9 18409733972302641509
3411729 13 18195244653665228040
474 4 16951991646107380036
5104073 3 18267596891328301203
573450 72 18186800262006735147
59682541 52 13696686192307217867
602551 16 18411418410440623730
633830 44 14045741569256280724
67856867 119 18114467876526160340
7495541 125 17988927765149223126
77492 1 17531256019658734332
9709674 26 18120661489965261995

> <PUBCHEM_SHAPE_MULTIPOLES>
432.24
11.81
2.28
1.32
4.57
0.58
0.2
-4.2
2.84
-3.49
0.02
2.76
-0.07
0.86

> <PUBCHEM_SHAPE_SELFOVERLAP>
961.999

> <PUBCHEM_SHAPE_VOLUME>
229.3

> <PUBCHEM_COORDINATE_TYPE>
2
5
10

> <minimizedAffinity>
-6.71611

> <CNNscore>
0.6020130515

> <CNNaffinity>
5.0678777695

> <CNN_VS>
3.0509285927

> <CNNaffinity_variance>
0.1623812467

$$$$
5281654


 27 29  0  0  0  0  0  0  0  0999 V2000
  -22.7766   -3.4674   12.1144 O   0  0  0  0  0  0  0  0  0  0  0  0
  -25.4534   -3.2650    9.5882 O   0  0  0  0  0  0  0  0  0  0  0  0
  -21.5674   -6.6463    8.6618 O   0  0  0  0  0  0  0  0  0  0  0  0
  -23.7360   -5.1898    8.5482 O   0  0  0  0  0  0  0  0  0  0  0  0
  -18.7946   -6.0270   12.4661 O   0  0  0  0  0  0  0  0  0  0  0  0
  -22.2253   -5.0441   10.3533 C   0  0  0  0  0  0  0  0  0  0  0  0
  -23.9359   -3.1268   11.4356 C   0  0  0  0  0  0  0  0  0  0  0  0
  -21.9529   -4.4167   11.5669 C   0  0  0  0  0  0  0  0  0  0  0  0
  -24.3096   -3.6500   10.2536 C   0  0  0  0  0  0  0  0  0  0  0  0
  -23.4472   -4.6771    9.6213 C   0  0  0  0  0  0  0  0  0  0  0  0
  -21.3479   -6.0043    9.8428 C   0  0  0  0  0  0  0  0  0  0  0  0
  -20.7992   -4.7456   12.2790 C   0  0  0  0  0  0  0  0  0  0  0  0
  -19.9209   -5.7040   11.7729 C   0  0  0  0  0  0  0  0  0  0  0  0
  -20.1950   -6.3320   10.5573 C   0  0  0  0  0  0  0  0  0  0  0  0
  -26.0181   -2.6180    9.9630 H   0  0  0  0  0  0  0  0  0  0  0  0
  -22.3319   -6.4499    8.1568 H   0  0  0  0  0  0  0  0  0  0  0  0
  -18.6099   -5.6057   13.2824 H   0  0  0  0  0  0  0  0  0  0  0  0
  -26.9684    0.7953   14.0955 O   0  0  0  0  0  0  0  0  0  0  0  0
  -24.7279   -2.0970   12.1314 C   0  0  0  0  0  0  0  0  0  0  0  0
  -24.2986   -0.7695   12.1339 C   0  0  0  0  0  0  0  0  0  0  0  0
  -25.9074   -2.4490   12.7882 C   0  0  0  0  0  0  0  0  0  0  0  0
  -25.0482    0.2051   12.7926 C   0  0  0  0  0  0  0  0  0  0  0  0
  -26.6569   -1.4744   13.4469 C   0  0  0  0  0  0  0  0  0  0  0  0
  -26.2273   -0.1475   13.4491 C   0  0  0  0  0  0  0  0  0  0  0  0
  -26.6871    1.6890   14.1019 H   0  0  0  0  0  0  0  0  0  0  0  0
  -24.6183    1.4978   12.7879 O   0  0  0  0  0  0  0  0  0  0  0  0
  -23.7351    1.8833   11.7366 C   0  0  0  0  0  0  0  0  0  0  0  0
  1  7  1  0  0  0
  1  8  1  0  0  0
  2  9  1  0  0  0
  3 11  1  0  0  0
 26 22  1  0  0  0
 26 27  1  0  0  0
  4 10  2  0  0  0
  5 13  1  0  0  0
 18 24  1  0  0  0
  6  8  1  0  0  0
  6 10  1  0  0  0
  6 11  2  0  0  0
  7 19  1  0  0  0
  7  9  2  0  0  0
  8 12  2  0  0  0
 19 20  2  0  0  0
 19 21  1  0  0  0
  9 10  1  0  0  0
 11 14  1  0  0  0
 12 13  1  0  0  0
 20 22  1  0  0  0
 21 23  2  0  0  0
 13 14  2  0  0  0
 22 24  2  0  0  0
 23 24  1  0  0  0
  2 15  1  0  0  0
  3 16  1  0  0  0
  5 17  1  0  0  0
 18 25  1  0  0  0
M  END
> <PUBCHEM_COMPOUND_CID>
5281654

> <PUBCHEM_CONFORMER_RMSD>
0.6

> <PUBCHEM_CONFORMER_DIVERSEORDER>
1
5
3
4
2
6

> <PUBCHEM_MMFF94_PARTIAL_CHARGES>
32
1 -0.16
10 0.08
11 0.03
12 0.09
13 0.47
14 0.08
15 -0.15
16 -0.15
17 -0.15
18 0.08
19 -0.15
2 -0.53
20 0.08
21 -0.15
22 0.08
23 0.28
24 0.15
25 0.15
26 0.15
27 0.15
28 0.15
29 0.45
3 -0.53
30 0.45
31 0.45
32 0.45
4 -0.36
5 -0.57
6 -0.53
7 -0.53
8 0.09
9 0.05

> <PUBCHEM_EFFECTIVE_ROTOR_COUNT>
2

> <PUBCHEM_PHARMACOPHORE_FEATURES>
10
1 1 acceptor
1 2 donor
1 3 donor
1 4 acceptor
1 5 acceptor
1 6 donor
1 7 donor
6 1 8 9 10 12 13 rings
6 11 16 17 20 21 22 rings
6 8 10 14 15 18 19 rings

> <PUBCHEM_HEAVY_ATOM_COUNT>
23

> <PUBCHEM_ATOM_DEF_STEREO_COUNT>
0

> <PUBCHEM_ATOM_UDEF_STEREO_COUNT>
0

> <PUBCHEM_BOND_DEF_STEREO_COUNT>
0

> <PUBCHEM_BOND_UDEF_STEREO_COUNT>
0

> <PUBCHEM_ISOTOPIC_ATOM_COUNT>
0

> <PUBCHEM_COMPONENT_COUNT>
1

> <PUBCHEM_CACTVS_TAUTO_COUNT>
174

> <PUBCHEM_CONFORMER_ID>
0050977600000001

> <PUBCHEM_MMFF94_ENERGY>
79.2051

> <PUBCHEM_FEATURE_SELFOVERLAP>
50.776

> <PUBCHEM_SHAPE_FINGERPRINT>
10062212 137 18113622287585563379
10319926 262 18269822139585817994
10912923 1 17748829630820060926
11045977 3 18059851753434025776
11370993 144 17060070194036718571
11545043 162 18200879479032149878
12236239 1 17676494921566363222
12403259 415 17847062173215408214
12553582 1 18335427884821855155
12616971 3 17022621948759430219
13140716 1 18339647836567301017
13583140 156 18057304129690565606
13675066 3 17989770003112852359
13782708 43 17846222120747224302
14386348 63 17917435298027703270
15099037 37 18342172271760775893
15196674 1 18410580625471844157
15880784 105 16630519635548229719
15961568 22 18337952406923316588
17349148 13 17385443206998959762
17804303 29 18412830192023841585
17844677 252 16773802476157885616
1813 80 17749382710959975756
18186145 218 12179842792603919972
18222031 100 18340768238198495582
18681886 176 18335150825662037830
18785283 64 17772739709720941576
19141452 34 17846503664401063959
200 152 16370444436453271268
20028762 73 18056765549377431463
20600515 1 18411980239160115549
21033648 29 17346306077354145402
21065201 7 18340491054284406198
21267235 1 18336558191713374555
21728266 224 18187917383106134411
22646028 1 17749107785829301714
2297311 6 18341344326599170286
23366157 5 17825394238932236213
23402539 116 18409451370947539359
23557571 272 18272095937768416228
23559900 14 18270692948104364902
2838139 119 14907068037669751649
3004659 81 18040720298228782630
335352 9 18409733972302641509
3411729 13 18195244653665228040
474 4 16951991646107380036
5104073 3 18267596891328301203
573450 72 18186800262006735147
59682541 52 13696686192307217867
602551 16 18411418410440623730
633830 44 14045741569256280724
67856867 119 18114467876526160340
7495541 125 17988927765149223126
77492 1 17531256019658734332
9709674 26 18120661489965261995

> <PUBCHEM_SHAPE_MULTIPOLES>
432.24
11.81
2.28
1.32
4.57
0.58
0.2
-4.2
2.84
-3.49
0.02
2.76
-0.07
0.86

> <PUBCHEM_SHAPE_SELFOVERLAP>
961.999

> <PUBCHEM_SHAPE_VOLUME>
229.3

> <PUBCHEM_COORDINATE_TYPE>
2
5
10

> <minimizedAffinity>
-5.96923

> <CNNscore>
0.4598390758

> <CNNaffinity>
4.3260517120

> <CNN_VS>
1.9892876148

> <CNNaffinity_variance>
0.2438892126

$$$$
5281654


 27 29  0  0  0  0  0  0  0  0999 V2000
  -22.8486   -4.4186   10.3822 O   0  0  0  0  0  0  0  0  0  0  0  0
  -20.0202   -6.7780   10.2366 O   0  0  0  0  0  0  0  0  0  0  0  0
  -19.5874   -2.7572   13.5589 O   0  0  0  0  0  0  0  0  0  0  0  0
  -19.2059   -4.9191   12.1386 O   0  0  0  0  0  0  0  0  0  0  0  0
  -23.6903   -0.4677   12.8747 O   0  0  0  0  0  0  0  0  0  0  0  0
  -21.1770   -3.6368   11.9589 C   0  0  0  0  0  0  0  0  0  0  0  0
  -22.0341   -5.4939   10.0641 C   0  0  0  0  0  0  0  0  0  0  0  0
  -22.4099   -3.5208   11.3208 C   0  0  0  0  0  0  0  0  0  0  0  0
  -20.8199   -5.7159   10.5995 C   0  0  0  0  0  0  0  0  0  0  0  0
  -20.3020   -4.7683   11.6157 C   0  0  0  0  0  0  0  0  0  0  0  0
  -20.7815   -2.6901   12.9073 C   0  0  0  0  0  0  0  0  0  0  0  0
  -23.2567   -2.4554   11.6271 C   0  0  0  0  0  0  0  0  0  0  0  0
  -22.8657   -1.5082   12.5737 C   0  0  0  0  0  0  0  0  0  0  0  0
  -21.6306   -1.6256   13.2124 C   0  0  0  0  0  0  0  0  0  0  0  0
  -20.3204   -7.3934    9.5970 H   0  0  0  0  0  0  0  0  0  0  0  0
  -18.9935   -3.4589   13.3777 H   0  0  0  0  0  0  0  0  0  0  0  0
  -24.5198   -0.3882   12.4462 H   0  0  0  0  0  0  0  0  0  0  0  0
  -24.2713   -8.8743    6.1625 O   0  0  0  0  0  0  0  0  0  0  0  0
  -22.6233   -6.3792    9.0437 C   0  0  0  0  0  0  0  0  0  0  0  0
  -23.9747   -6.7192    9.1108 C   0  0  0  0  0  0  0  0  0  0  0  0
  -21.8298   -6.8779    8.0101 C   0  0  0  0  0  0  0  0  0  0  0  0
  -24.5322   -7.5572    8.1451 C   0  0  0  0  0  0  0  0  0  0  0  0
  -22.3873   -7.7158    7.0445 C   0  0  0  0  0  0  0  0  0  0  0  0
  -23.7384   -8.0555    7.1119 C   0  0  0  0  0  0  0  0  0  0  0  0
  -25.1781   -9.1075    6.2004 H   0  0  0  0  0  0  0  0  0  0  0  0
  -25.8531   -7.8820    8.2216 O   0  0  0  0  0  0  0  0  0  0  0  0
  -26.6386   -7.1792    9.1824 C   0  0  0  0  0  0  0  0  0  0  0  0
  1  7  1  0  0  0
  1  8  1  0  0  0
  2  9  1  0  0  0
  3 11  1  0  0  0
 26 22  1  0  0  0
 26 27  1  0  0  0
  4 10  2  0  0  0
  5 13  1  0  0  0
 18 24  1  0  0  0
  6  8  1  0  0  0
  6 10  1  0  0  0
  6 11  2  0  0  0
  7 19  1  0  0  0
  7  9  2  0  0  0
  8 12  2  0  0  0
 19 20  2  0  0  0
 19 21  1  0  0  0
  9 10  1  0  0  0
 11 14  1  0  0  0
 12 13  1  0  0  0
 20 22  1  0  0  0
 21 23  2  0  0  0
 13 14  2  0  0  0
 22 24  2  0  0  0
 23 24  1  0  0  0
  2 15  1  0  0  0
  3 16  1  0  0  0
  5 17  1  0  0  0
 18 25  1  0  0  0
M  END
> <PUBCHEM_COMPOUND_CID>
5281654

> <PUBCHEM_CONFORMER_RMSD>
0.6

> <PUBCHEM_CONFORMER_DIVERSEORDER>
1
5
3
4
2
6

> <PUBCHEM_MMFF94_PARTIAL_CHARGES>
32
1 -0.16
10 0.08
11 0.03
12 0.09
13 0.47
14 0.08
15 -0.15
16 -0.15
17 -0.15
18 0.08
19 -0.15
2 -0.53
20 0.08
21 -0.15
22 0.08
23 0.28
24 0.15
25 0.15
26 0.15
27 0.15
28 0.15
29 0.45
3 -0.53
30 0.45
31 0.45
32 0.45
4 -0.36
5 -0.57
6 -0.53
7 -0.53
8 0.09
9 0.05

> <PUBCHEM_EFFECTIVE_ROTOR_COUNT>
2

> <PUBCHEM_PHARMACOPHORE_FEATURES>
10
1 1 acceptor
1 2 donor
1 3 donor
1 4 acceptor
1 5 acceptor
1 6 donor
1 7 donor
6 1 8 9 10 12 13 rings
6 11 16 17 20 21 22 rings
6 8 10 14 15 18 19 rings

> <PUBCHEM_HEAVY_ATOM_COUNT>
23

> <PUBCHEM_ATOM_DEF_STEREO_COUNT>
0

> <PUBCHEM_ATOM_UDEF_STEREO_COUNT>
0

> <PUBCHEM_BOND_DEF_STEREO_COUNT>
0

> <PUBCHEM_BOND_UDEF_STEREO_COUNT>
0

> <PUBCHEM_ISOTOPIC_ATOM_COUNT>
0

> <PUBCHEM_COMPONENT_COUNT>
1

> <PUBCHEM_CACTVS_TAUTO_COUNT>
174

> <PUBCHEM_CONFORMER_ID>
0050977600000001

> <PUBCHEM_MMFF94_ENERGY>
79.2051

> <PUBCHEM_FEATURE_SELFOVERLAP>
50.776

> <PUBCHEM_SHAPE_FINGERPRINT>
10062212 137 18113622287585563379
10319926 262 18269822139585817994
10912923 1 17748829630820060926
11045977 3 18059851753434025776
11370993 144 17060070194036718571
11545043 162 18200879479032149878
12236239 1 17676494921566363222
12403259 415 17847062173215408214
12553582 1 18335427884821855155
12616971 3 17022621948759430219
13140716 1 18339647836567301017
13583140 156 18057304129690565606
13675066 3 17989770003112852359
13782708 43 17846222120747224302
14386348 63 17917435298027703270
15099037 37 18342172271760775893
15196674 1 18410580625471844157
15880784 105 16630519635548229719
15961568 22 18337952406923316588
17349148 13 17385443206998959762
17804303 29 18412830192023841585
17844677 252 16773802476157885616
1813 80 17749382710959975756
18186145 218 12179842792603919972
18222031 100 18340768238198495582
18681886 176 18335150825662037830
18785283 64 17772739709720941576
19141452 34 17846503664401063959
200 152 16370444436453271268
20028762 73 18056765549377431463
20600515 1 18411980239160115549
21033648 29 17346306077354145402
21065201 7 18340491054284406198
21267235 1 18336558191713374555
21728266 224 18187917383106134411
22646028 1 17749107785829301714
2297311 6 18341344326599170286
23366157 5 17825394238932236213
23402539 116 18409451370947539359
23557571 272 18272095937768416228
23559900 14 18270692948104364902
2838139 119 14907068037669751649
3004659 81 18040720298228782630
335352 9 18409733972302641509
3411729 13 18195244653665228040
474 4 16951991646107380036
5104073 3 18267596891328301203
573450 72 18186800262006735147
59682541 52 13696686192307217867
602551 16 18411418410440623730
633830 44 14045741569256280724
67856867 119 18114467876526160340
7495541 125 17988927765149223126
77492 1 17531256019658734332
9709674 26 18120661489965261995

> <PUBCHEM_SHAPE_MULTIPOLES>
432.24
11.81
2.28
1.32
4.57
0.58
0.2
-4.2
2.84
-3.49
0.02
2.76
-0.07
0.86

> <PUBCHEM_SHAPE_SELFOVERLAP>
961.999

> <PUBCHEM_SHAPE_VOLUME>
229.3

> <PUBCHEM_COORDINATE_TYPE>
2
5
10

> <minimizedAffinity>
-5.29212

> <CNNscore>
0.4414660335

> <CNNaffinity>
4.6595716476

> <CNN_VS>
2.0570425987

> <CNNaffinity_variance>
0.0748047531

$$$$
5281654


 27 29  0  0  0  0  0  0  0  0999 V2000
  -23.2183   -3.0057   10.9008 O   0  0  0  0  0  0  0  0  0  0  0  0
  -26.1717   -4.3215    9.1304 O   0  0  0  0  0  0  0  0  0  0  0  0
  -22.1762   -7.6227    9.8591 O   0  0  0  0  0  0  0  0  0  0  0  0
  -24.4454   -6.5012    9.2036 O   0  0  0  0  0  0  0  0  0  0  0  0
  -19.0437   -4.8877   12.1507 O   0  0  0  0  0  0  0  0  0  0  0  0
  -22.7549   -5.3242   10.3519 C   0  0  0  0  0  0  0  0  0  0  0  0
  -24.4691   -3.1255   10.3159 C   0  0  0  0  0  0  0  0  0  0  0  0
  -22.3939   -4.1010   10.9124 C   0  0  0  0  0  0  0  0  0  0  0  0
  -24.9345   -4.2453    9.7329 C   0  0  0  0  0  0  0  0  0  0  0  0
  -24.0757   -5.4539    9.7176 C   0  0  0  0  0  0  0  0  0  0  0  0
  -21.8724   -6.4067   10.3922 C   0  0  0  0  0  0  0  0  0  0  0  0
  -21.1459   -3.9519   11.5177 C   0  0  0  0  0  0  0  0  0  0  0  0
  -20.2621   -5.0304   11.5604 C   0  0  0  0  0  0  0  0  0  0  0  0
  -20.6250   -6.2553   10.9988 C   0  0  0  0  0  0  0  0  0  0  0  0
  -26.7366   -3.5740    9.1242 H   0  0  0  0  0  0  0  0  0  0  0  0
  -23.0054   -7.7585    9.4444 H   0  0  0  0  0  0  0  0  0  0  0  0
  -18.7994   -4.0655   12.5280 H   0  0  0  0  0  0  0  0  0  0  0  0
  -27.4590    1.6353   10.5373 O   0  0  0  0  0  0  0  0  0  0  0  0
  -25.2511   -1.8776   10.3707 C   0  0  0  0  0  0  0  0  0  0  0  0
  -25.2359   -0.9962    9.2893 C   0  0  0  0  0  0  0  0  0  0  0  0
  -26.0070   -1.5768   11.5041 C   0  0  0  0  0  0  0  0  0  0  0  0
  -25.9760    0.1850    9.3413 C   0  0  0  0  0  0  0  0  0  0  0  0
  -26.7471   -0.3957   11.5561 C   0  0  0  0  0  0  0  0  0  0  0  0
  -26.7316    0.4852   10.4747 C   0  0  0  0  0  0  0  0  0  0  0  0
  -27.4542    2.2326    9.8153 H   0  0  0  0  0  0  0  0  0  0  0  0
  -25.9528    1.0375    8.2789 O   0  0  0  0  0  0  0  0  0  0  0  0
  -26.7302    0.6745    7.1396 C   0  0  0  0  0  0  0  0  0  0  0  0
  1  7  1  0  0  0
  1  8  1  0  0  0
  2  9  1  0  0  0
  3 11  1  0  0  0
 26 22  1  0  0  0
 26 27  1  0  0  0
  4 10  2  0  0  0
  5 13  1  0  0  0
 18 24  1  0  0  0
  6  8  1  0  0  0
  6 10  1  0  0  0
  6 11  2  0  0  0
  7 19  1  0  0  0
  7  9  2  0  0  0
  8 12  2  0  0  0
 19 20  2  0  0  0
 19 21  1  0  0  0
  9 10  1  0  0  0
 11 14  1  0  0  0
 12 13  1  0  0  0
 20 22  1  0  0  0
 21 23  2  0  0  0
 13 14  2  0  0  0
 22 24  2  0  0  0
 23 24  1  0  0  0
  2 15  1  0  0  0
  3 16  1  0  0  0
  5 17  1  0  0  0
 18 25  1  0  0  0
M  END
> <PUBCHEM_COMPOUND_CID>
5281654

> <PUBCHEM_CONFORMER_RMSD>
0.6

> <PUBCHEM_CONFORMER_DIVERSEORDER>
1
5
3
4
2
6

> <PUBCHEM_MMFF94_PARTIAL_CHARGES>
32
1 -0.16
10 0.08
11 0.03
12 0.09
13 0.47
14 0.08
15 -0.15
16 -0.15
17 -0.15
18 0.08
19 -0.15
2 -0.53
20 0.08
21 -0.15
22 0.08
23 0.28
24 0.15
25 0.15
26 0.15
27 0.15
28 0.15
29 0.45
3 -0.53
30 0.45
31 0.45
32 0.45
4 -0.36
5 -0.57
6 -0.53
7 -0.53
8 0.09
9 0.05

> <PUBCHEM_EFFECTIVE_ROTOR_COUNT>
2

> <PUBCHEM_PHARMACOPHORE_FEATURES>
10
1 1 acceptor
1 2 donor
1 3 donor
1 4 acceptor
1 5 acceptor
1 6 donor
1 7 donor
6 1 8 9 10 12 13 rings
6 11 16 17 20 21 22 rings
6 8 10 14 15 18 19 rings

> <PUBCHEM_HEAVY_ATOM_COUNT>
23

> <PUBCHEM_ATOM_DEF_STEREO_COUNT>
0

> <PUBCHEM_ATOM_UDEF_STEREO_COUNT>
0

> <PUBCHEM_BOND_DEF_STEREO_COUNT>
0

> <PUBCHEM_BOND_UDEF_STEREO_COUNT>
0

> <PUBCHEM_ISOTOPIC_ATOM_COUNT>
0

> <PUBCHEM_COMPONENT_COUNT>
1

> <PUBCHEM_CACTVS_TAUTO_COUNT>
174

> <PUBCHEM_CONFORMER_ID>
0050977600000001

> <PUBCHEM_MMFF94_ENERGY>
79.2051

> <PUBCHEM_FEATURE_SELFOVERLAP>
50.776

> <PUBCHEM_SHAPE_FINGERPRINT>
10062212 137 18113622287585563379
10319926 262 18269822139585817994
10912923 1 17748829630820060926
11045977 3 18059851753434025776
11370993 144 17060070194036718571
11545043 162 18200879479032149878
12236239 1 17676494921566363222
12403259 415 17847062173215408214
12553582 1 18335427884821855155
12616971 3 17022621948759430219
13140716 1 18339647836567301017
13583140 156 18057304129690565606
13675066 3 17989770003112852359
13782708 43 17846222120747224302
14386348 63 17917435298027703270
15099037 37 18342172271760775893
15196674 1 18410580625471844157
15880784 105 16630519635548229719
15961568 22 18337952406923316588
17349148 13 17385443206998959762
17804303 29 18412830192023841585
17844677 252 16773802476157885616
1813 80 17749382710959975756
18186145 218 12179842792603919972
18222031 100 18340768238198495582
18681886 176 18335150825662037830
18785283 64 17772739709720941576
19141452 34 17846503664401063959
200 152 16370444436453271268
20028762 73 18056765549377431463
20600515 1 18411980239160115549
21033648 29 17346306077354145402
21065201 7 18340491054284406198
21267235 1 18336558191713374555
21728266 224 18187917383106134411
22646028 1 17749107785829301714
2297311 6 18341344326599170286
23366157 5 17825394238932236213
23402539 116 18409451370947539359
23557571 272 18272095937768416228
23559900 14 18270692948104364902
2838139 119 14907068037669751649
3004659 81 18040720298228782630
335352 9 18409733972302641509
3411729 13 18195244653665228040
474 4 16951991646107380036
5104073 3 18267596891328301203
573450 72 18186800262006735147
59682541 52 13696686192307217867
602551 16 18411418410440623730
633830 44 14045741569256280724
67856867 119 18114467876526160340
7495541 125 17988927765149223126
77492 1 17531256019658734332
9709674 26 18120661489965261995

> <PUBCHEM_SHAPE_MULTIPOLES>
432.24
11.81
2.28
1.32
4.57
0.58
0.2
-4.2
2.84
-3.49
0.02
2.76
-0.07
0.86

> <PUBCHEM_SHAPE_SELFOVERLAP>
961.999

> <PUBCHEM_SHAPE_VOLUME>
229.3

> <PUBCHEM_COORDINATE_TYPE>
2
5
10

> <minimizedAffinity>
-4.60966

> <CNNscore>
0.3926264048

> <CNNaffinity>
4.4115715027

> <CNN_VS>
1.7320994139

> <CNNaffinity_variance>
0.0638199821

$$$$
5281654


 27 29  0  0  0  0  0  0  0  0999 V2000
  -22.6092   -4.4669   10.3283 O   0  0  0  0  0  0  0  0  0  0  0  0
  -19.6674   -6.6821   10.1667 O   0  0  0  0  0  0  0  0  0  0  0  0
  -19.4761   -2.7297   13.5922 O   0  0  0  0  0  0  0  0  0  0  0  0
  -18.9705   -4.8343   12.1253 O   0  0  0  0  0  0  0  0  0  0  0  0
  -23.6763   -0.6251   12.9039 O   0  0  0  0  0  0  0  0  0  0  0  0
  -20.9992   -3.6448   11.9480 C   0  0  0  0  0  0  0  0  0  0  0  0
  -21.7391   -5.4931    9.9960 C   0  0  0  0  0  0  0  0  0  0  0  0
  -22.2276   -3.5727   11.2948 C   0  0  0  0  0  0  0  0  0  0  0  0
  -20.5228   -5.6694   10.5436 C   0  0  0  0  0  0  0  0  0  0  0  0
  -20.0656   -4.7237   11.5902 C   0  0  0  0  0  0  0  0  0  0  0  0
  -20.6632   -2.7042   12.9249 C   0  0  0  0  0  0  0  0  0  0  0  0
  -23.1294   -2.5575   11.6146 C   0  0  0  0  0  0  0  0  0  0  0  0
  -22.7979   -1.6166   12.5897 C   0  0  0  0  0  0  0  0  0  0  0  0
  -21.5672   -1.6901   13.2435 C   0  0  0  0  0  0  0  0  0  0  0  0
  -19.9286   -7.2950    9.5079 H   0  0  0  0  0  0  0  0  0  0  0  0
  -18.8464   -3.3972   13.4027 H   0  0  0  0  0  0  0  0  0  0  0  0
  -24.5028   -0.5751   12.4653 H   0  0  0  0  0  0  0  0  0  0  0  0
  -23.7748   -8.8855    5.9958 O   0  0  0  0  0  0  0  0  0  0  0  0
  -22.2705   -6.3799    8.9457 C   0  0  0  0  0  0  0  0  0  0  0  0
  -21.9072   -6.1800    7.6136 C   0  0  0  0  0  0  0  0  0  0  0  0
  -23.1374   -7.4198    9.2830 C   0  0  0  0  0  0  0  0  0  0  0  0
  -22.4104   -7.0193    6.6196 C   0  0  0  0  0  0  0  0  0  0  0  0
  -23.6406   -8.2590    8.2890 C   0  0  0  0  0  0  0  0  0  0  0  0
  -23.2771   -8.0588    6.9574 C   0  0  0  0  0  0  0  0  0  0  0  0
  -23.5357   -8.7581    5.0988 H   0  0  0  0  0  0  0  0  0  0  0  0
  -22.0482   -6.8137    5.3224 O   0  0  0  0  0  0  0  0  0  0  0  0
  -20.6519   -6.8088    5.0325 C   0  0  0  0  0  0  0  0  0  0  0  0
  1  7  1  0  0  0
  1  8  1  0  0  0
  2  9  1  0  0  0
  3 11  1  0  0  0
 26 22  1  0  0  0
 26 27  1  0  0  0
  4 10  2  0  0  0
  5 13  1  0  0  0
 18 24  1  0  0  0
  6  8  1  0  0  0
  6 10  1  0  0  0
  6 11  2  0  0  0
  7 19  1  0  0  0
  7  9  2  0  0  0
  8 12  2  0  0  0
 19 20  2  0  0  0
 19 21  1  0  0  0
  9 10  1  0  0  0
 11 14  1  0  0  0
 12 13  1  0  0  0
 20 22  1  0  0  0
 21 23  2  0  0  0
 13 14  2  0  0  0
 22 24  2  0  0  0
 23 24  1  0  0  0
  2 15  1  0  0  0
  3 16  1  0  0  0
  5 17  1  0  0  0
 18 25  1  0  0  0
M  END
> <PUBCHEM_COMPOUND_CID>
5281654

> <PUBCHEM_CONFORMER_RMSD>
0.6

> <PUBCHEM_CONFORMER_DIVERSEORDER>
1
5
3
4
2
6

> <PUBCHEM_MMFF94_PARTIAL_CHARGES>
32
1 -0.16
10 0.08
11 0.03
12 0.09
13 0.47
14 0.08
15 -0.15
16 -0.15
17 -0.15
18 0.08
19 -0.15
2 -0.53
20 0.08
21 -0.15
22 0.08
23 0.28
24 0.15
25 0.15
26 0.15
27 0.15
28 0.15
29 0.45
3 -0.53
30 0.45
31 0.45
32 0.45
4 -0.36
5 -0.57
6 -0.53
7 -0.53
8 0.09
9 0.05

> <PUBCHEM_EFFECTIVE_ROTOR_COUNT>
2

> <PUBCHEM_PHARMACOPHORE_FEATURES>
10
1 1 acceptor
1 2 donor
1 3 donor
1 4 acceptor
1 5 acceptor
1 6 donor
1 7 donor
6 1 8 9 10 12 13 rings
6 11 16 17 20 21 22 rings
6 8 10 14 15 18 19 rings

> <PUBCHEM_HEAVY_ATOM_COUNT>
23

> <PUBCHEM_ATOM_DEF_STEREO_COUNT>
0

> <PUBCHEM_ATOM_UDEF_STEREO_COUNT>
0

> <PUBCHEM_BOND_DEF_STEREO_COUNT>
0

> <PUBCHEM_BOND_UDEF_STEREO_COUNT>
0

> <PUBCHEM_ISOTOPIC_ATOM_COUNT>
0

> <PUBCHEM_COMPONENT_COUNT>
1

> <PUBCHEM_CACTVS_TAUTO_COUNT>
174

> <PUBCHEM_CONFORMER_ID>
0050977600000001

> <PUBCHEM_MMFF94_ENERGY>
79.2051

> <PUBCHEM_FEATURE_SELFOVERLAP>
50.776

> <PUBCHEM_SHAPE_FINGERPRINT>
10062212 137 18113622287585563379
10319926 262 18269822139585817994
10912923 1 17748829630820060926
11045977 3 18059851753434025776
11370993 144 17060070194036718571
11545043 162 18200879479032149878
12236239 1 17676494921566363222
12403259 415 17847062173215408214
12553582 1 18335427884821855155
12616971 3 17022621948759430219
13140716 1 18339647836567301017
13583140 156 18057304129690565606
13675066 3 17989770003112852359
13782708 43 17846222120747224302
14386348 63 17917435298027703270
15099037 37 18342172271760775893
15196674 1 18410580625471844157
15880784 105 16630519635548229719
15961568 22 18337952406923316588
17349148 13 17385443206998959762
17804303 29 18412830192023841585
17844677 252 16773802476157885616
1813 80 17749382710959975756
18186145 218 12179842792603919972
18222031 100 18340768238198495582
18681886 176 18335150825662037830
18785283 64 17772739709720941576
19141452 34 17846503664401063959
200 152 16370444436453271268
20028762 73 18056765549377431463
20600515 1 18411980239160115549
21033648 29 17346306077354145402
21065201 7 18340491054284406198
21267235 1 18336558191713374555
21728266 224 18187917383106134411
22646028 1 17749107785829301714
2297311 6 18341344326599170286
23366157 5 17825394238932236213
23402539 116 18409451370947539359
23557571 272 18272095937768416228
23559900 14 18270692948104364902
2838139 119 14907068037669751649
3004659 81 18040720298228782630
335352 9 18409733972302641509
3411729 13 18195244653665228040
474 4 16951991646107380036
5104073 3 18267596891328301203
573450 72 18186800262006735147
59682541 52 13696686192307217867
602551 16 18411418410440623730
633830 44 14045741569256280724
67856867 119 18114467876526160340
7495541 125 17988927765149223126
77492 1 17531256019658734332
9709674 26 18120661489965261995

> <PUBCHEM_SHAPE_MULTIPOLES>
432.24
11.81
2.28
1.32
4.57
0.58
0.2
-4.2
2.84
-3.49
0.02
2.76
-0.07
0.86

> <PUBCHEM_SHAPE_SELFOVERLAP>
961.999

> <PUBCHEM_SHAPE_VOLUME>
229.3

> <PUBCHEM_COORDINATE_TYPE>
2
5
10

> <minimizedAffinity>
-5.82601

> <CNNscore>
0.3833764195

> <CNNaffinity>
4.5969452858

> <CNN_VS>
1.7623604536

> <CNNaffinity_variance>
0.1104041934

$$$$
5281654


 27 29  0  0  0  0  0  0  0  0999 V2000
  -20.0486   -1.7836   11.8098 O   0  0  0  0  0  0  0  0  0  0  0  0
  -17.3347   -3.3177    9.8429 O   0  0  0  0  0  0  0  0  0  0  0  0
  -16.5623    1.5722   11.5412 O   0  0  0  0  0  0  0  0  0  0  0  0
  -16.3423   -0.7888   10.4392 O   0  0  0  0  0  0  0  0  0  0  0  0
  -20.6110    2.4621   13.8564 O   0  0  0  0  0  0  0  0  0  0  0  0
  -18.2662   -0.1446   11.6414 C   0  0  0  0  0  0  0  0  0  0  0  0
  -19.2828   -2.6796   11.0807 C   0  0  0  0  0  0  0  0  0  0  0  0
  -19.5268   -0.5448   12.0790 C   0  0  0  0  0  0  0  0  0  0  0  0
  -18.0569   -2.4152   10.5932 C   0  0  0  0  0  0  0  0  0  0  0  0
  -17.4541   -1.0861   10.8555 C   0  0  0  0  0  0  0  0  0  0  0  0
  -17.7864    1.1320   11.9450 C   0  0  0  0  0  0  0  0  0  0  0  0
  -20.3174    0.3307   12.8239 C   0  0  0  0  0  0  0  0  0  0  0  0
  -19.8417    1.6060   13.1294 C   0  0  0  0  0  0  0  0  0  0  0  0
  -18.5787    2.0056   12.6908 C   0  0  0  0  0  0  0  0  0  0  0  0
  -17.6896   -4.1655    9.6605 H   0  0  0  0  0  0  0  0  0  0  0  0
  -16.0049    1.0110   11.0388 H   0  0  0  0  0  0  0  0  0  0  0  0
  -21.4592    2.1945   14.1512 H   0  0  0  0  0  0  0  0  0  0  0  0
  -21.8590   -7.6124   10.2535 O   0  0  0  0  0  0  0  0  0  0  0  0
  -19.9602   -3.9701   10.8623 C   0  0  0  0  0  0  0  0  0  0  0  0
  -21.1752   -4.0136   10.1781 C   0  0  0  0  0  0  0  0  0  0  0  0
  -19.3869   -5.1490   11.3399 C   0  0  0  0  0  0  0  0  0  0  0  0
  -21.8165   -5.2351    9.9716 C   0  0  0  0  0  0  0  0  0  0  0  0
  -20.0280   -6.3703   11.1335 C   0  0  0  0  0  0  0  0  0  0  0  0
  -21.2428   -6.4134   10.4493 C   0  0  0  0  0  0  0  0  0  0  0  0
  -22.6752   -7.6504    9.7950 H   0  0  0  0  0  0  0  0  0  0  0  0
  -23.0026   -5.2644    9.3021 O   0  0  0  0  0  0  0  0  0  0  0  0
  -23.6543   -4.0148    9.0834 C   0  0  0  0  0  0  0  0  0  0  0  0
  1  7  1  0  0  0
  1  8  1  0  0  0
  2  9  1  0  0  0
  3 11  1  0  0  0
 26 22  1  0  0  0
 26 27  1  0  0  0
  4 10  2  0  0  0
  5 13  1  0  0  0
 18 24  1  0  0  0
  6  8  1  0  0  0
  6 10  1  0  0  0
  6 11  2  0  0  0
  7 19  1  0  0  0
  7  9  2  0  0  0
  8 12  2  0  0  0
 19 20  2  0  0  0
 19 21  1  0  0  0
  9 10  1  0  0  0
 11 14  1  0  0  0
 12 13  1  0  0  0
 20 22  1  0  0  0
 21 23  2  0  0  0
 13 14  2  0  0  0
 22 24  2  0  0  0
 23 24  1  0  0  0
  2 15  1  0  0  0
  3 16  1  0  0  0
  5 17  1  0  0  0
 18 25  1  0  0  0
M  END
> <PUBCHEM_COMPOUND_CID>
5281654

> <PUBCHEM_CONFORMER_RMSD>
0.6

> <PUBCHEM_CONFORMER_DIVERSEORDER>
1
5
3
4
2
6

> <PUBCHEM_MMFF94_PARTIAL_CHARGES>
32
1 -0.16
10 0.08
11 0.03
12 0.09
13 0.47
14 0.08
15 -0.15
16 -0.15
17 -0.15
18 0.08
19 -0.15
2 -0.53
20 0.08
21 -0.15
22 0.08
23 0.28
24 0.15
25 0.15
26 0.15
27 0.15
28 0.15
29 0.45
3 -0.53
30 0.45
31 0.45
32 0.45
4 -0.36
5 -0.57
6 -0.53
7 -0.53
8 0.09
9 0.05

> <PUBCHEM_EFFECTIVE_ROTOR_COUNT>
2

> <PUBCHEM_PHARMACOPHORE_FEATURES>
10
1 1 acceptor
1 2 donor
1 3 donor
1 4 acceptor
1 5 acceptor
1 6 donor
1 7 donor
6 1 8 9 10 12 13 rings
6 11 16 17 20 21 22 rings
6 8 10 14 15 18 19 rings

> <PUBCHEM_HEAVY_ATOM_COUNT>
23

> <PUBCHEM_ATOM_DEF_STEREO_COUNT>
0

> <PUBCHEM_ATOM_UDEF_STEREO_COUNT>
0

> <PUBCHEM_BOND_DEF_STEREO_COUNT>
0

> <PUBCHEM_BOND_UDEF_STEREO_COUNT>
0

> <PUBCHEM_ISOTOPIC_ATOM_COUNT>
0

> <PUBCHEM_COMPONENT_COUNT>
1

> <PUBCHEM_CACTVS_TAUTO_COUNT>
174

> <PUBCHEM_CONFORMER_ID>
0050977600000001

> <PUBCHEM_MMFF94_ENERGY>
79.2051

> <PUBCHEM_FEATURE_SELFOVERLAP>
50.776

> <PUBCHEM_SHAPE_FINGERPRINT>
10062212 137 18113622287585563379
10319926 262 18269822139585817994
10912923 1 17748829630820060926
11045977 3 18059851753434025776
11370993 144 17060070194036718571
11545043 162 18200879479032149878
12236239 1 17676494921566363222
12403259 415 17847062173215408214
12553582 1 18335427884821855155
12616971 3 17022621948759430219
13140716 1 18339647836567301017
13583140 156 18057304129690565606
13675066 3 17989770003112852359
13782708 43 17846222120747224302
14386348 63 17917435298027703270
15099037 37 18342172271760775893
15196674 1 18410580625471844157
15880784 105 16630519635548229719
15961568 22 18337952406923316588
17349148 13 17385443206998959762
17804303 29 18412830192023841585
17844677 252 16773802476157885616
1813 80 17749382710959975756
18186145 218 12179842792603919972
18222031 100 18340768238198495582
18681886 176 18335150825662037830
18785283 64 17772739709720941576
19141452 34 17846503664401063959
200 152 16370444436453271268
20028762 73 18056765549377431463
20600515 1 18411980239160115549
21033648 29 17346306077354145402
21065201 7 18340491054284406198
21267235 1 18336558191713374555
21728266 224 18187917383106134411
22646028 1 17749107785829301714
2297311 6 18341344326599170286
23366157 5 17825394238932236213
23402539 116 18409451370947539359
23557571 272 18272095937768416228
23559900 14 18270692948104364902
2838139 119 14907068037669751649
3004659 81 18040720298228782630
335352 9 18409733972302641509
3411729 13 18195244653665228040
474 4 16951991646107380036
5104073 3 18267596891328301203
573450 72 18186800262006735147
59682541 52 13696686192307217867
602551 16 18411418410440623730
633830 44 14045741569256280724
67856867 119 18114467876526160340
7495541 125 17988927765149223126
77492 1 17531256019658734332
9709674 26 18120661489965261995

> <PUBCHEM_SHAPE_MULTIPOLES>
432.24
11.81
2.28
1.32
4.57
0.58
0.2
-4.2
2.84
-3.49
0.02
2.76
-0.07
0.86

> <PUBCHEM_SHAPE_SELFOVERLAP>
961.999

> <PUBCHEM_SHAPE_VOLUME>
229.3

> <PUBCHEM_COORDINATE_TYPE>
2
5
10

> <minimizedAffinity>
-8.17502

> <CNNscore>
0.3601773083

> <CNNaffinity>
4.8225975037

> <CNN_VS>
1.7369902134

> <CNNaffinity_variance>
0.4178031385

$$$$
5281654


 27 29  0  0  0  0  0  0  0  0999 V2000
  -20.6199   -2.3186   14.6106 O   0  0  0  0  0  0  0  0  0  0  0  0
  -20.3722   -0.1267   11.6573 O   0  0  0  0  0  0  0  0  0  0  0  0
  -19.0492    1.9538   16.2739 O   0  0  0  0  0  0  0  0  0  0  0  0
  -19.5505    1.5170   13.7452 O   0  0  0  0  0  0  0  0  0  0  0  0
  -19.7683   -1.6857   19.2372 O   0  0  0  0  0  0  0  0  0  0  0  0
  -19.8338   -0.1560   15.3830 C   0  0  0  0  0  0  0  0  0  0  0  0
  -20.6413   -1.8378   13.3110 C   0  0  0  0  0  0  0  0  0  0  0  0
  -20.2139   -1.4763   15.6132 C   0  0  0  0  0  0  0  0  0  0  0  0
  -20.3082   -0.5834   12.9560 C   0  0  0  0  0  0  0  0  0  0  0  0
  -19.8674    0.3644   14.0077 C   0  0  0  0  0  0  0  0  0  0  0  0
  -19.4298    0.6573   16.4449 C   0  0  0  0  0  0  0  0  0  0  0  0
  -20.1930   -1.9928   16.9090 C   0  0  0  0  0  0  0  0  0  0  0  0
  -19.7900   -1.1841   17.9718 C   0  0  0  0  0  0  0  0  0  0  0  0
  -19.4091    0.1382   17.7399 C   0  0  0  0  0  0  0  0  0  0  0  0
  -20.6472   -0.7026   10.9712 H   0  0  0  0  0  0  0  0  0  0  0  0
  -19.0515    2.3337   15.4174 H   0  0  0  0  0  0  0  0  0  0  0  0
  -20.0240   -2.5735   19.3937 H   0  0  0  0  0  0  0  0  0  0  0  0
  -22.3919   -5.6688    9.5810 O   0  0  0  0  0  0  0  0  0  0  0  0
  -21.0966   -2.8426   12.3337 C   0  0  0  0  0  0  0  0  0  0  0  0
  -20.1908   -3.7627   11.8051 C   0  0  0  0  0  0  0  0  0  0  0  0
  -22.4337   -2.8742   11.9365 C   0  0  0  0  0  0  0  0  0  0  0  0
  -20.6218   -4.7136   10.8800 C   0  0  0  0  0  0  0  0  0  0  0  0
  -22.8646   -3.8250   11.0115 C   0  0  0  0  0  0  0  0  0  0  0  0
  -21.9587   -4.7447   10.4833 C   0  0  0  0  0  0  0  0  0  0  0  0
  -21.7900   -6.2903    9.2212 H   0  0  0  0  0  0  0  0  0  0  0  0
  -19.7276   -5.6065   10.3710 O   0  0  0  0  0  0  0  0  0  0  0  0
  -18.6700   -6.0262   11.2308 C   0  0  0  0  0  0  0  0  0  0  0  0
  1  7  1  0  0  0
  1  8  1  0  0  0
  2  9  1  0  0  0
  3 11  1  0  0  0
 26 22  1  0  0  0
 26 27  1  0  0  0
  4 10  2  0  0  0
  5 13  1  0  0  0
 18 24  1  0  0  0
  6  8  1  0  0  0
  6 10  1  0  0  0
  6 11  2  0  0  0
  7 19  1  0  0  0
  7  9  2  0  0  0
  8 12  2  0  0  0
 19 20  2  0  0  0
 19 21  1  0  0  0
  9 10  1  0  0  0
 11 14  1  0  0  0
 12 13  1  0  0  0
 20 22  1  0  0  0
 21 23  2  0  0  0
 13 14  2  0  0  0
 22 24  2  0  0  0
 23 24  1  0  0  0
  2 15  1  0  0  0
  3 16  1  0  0  0
  5 17  1  0  0  0
 18 25  1  0  0  0
M  END
> <PUBCHEM_COMPOUND_CID>
5281654

> <PUBCHEM_CONFORMER_RMSD>
0.6

> <PUBCHEM_CONFORMER_DIVERSEORDER>
1
5
3
4
2
6

> <PUBCHEM_MMFF94_PARTIAL_CHARGES>
32
1 -0.16
10 0.08
11 0.03
12 0.09
13 0.47
14 0.08
15 -0.15
16 -0.15
17 -0.15
18 0.08
19 -0.15
2 -0.53
20 0.08
21 -0.15
22 0.08
23 0.28
24 0.15
25 0.15
26 0.15
27 0.15
28 0.15
29 0.45
3 -0.53
30 0.45
31 0.45
32 0.45
4 -0.36
5 -0.57
6 -0.53
7 -0.53
8 0.09
9 0.05

> <PUBCHEM_EFFECTIVE_ROTOR_COUNT>
2

> <PUBCHEM_PHARMACOPHORE_FEATURES>
10
1 1 acceptor
1 2 donor
1 3 donor
1 4 acceptor
1 5 acceptor
1 6 donor
1 7 donor
6 1 8 9 10 12 13 rings
6 11 16 17 20 21 22 rings
6 8 10 14 15 18 19 rings

> <PUBCHEM_HEAVY_ATOM_COUNT>
23

> <PUBCHEM_ATOM_DEF_STEREO_COUNT>
0

> <PUBCHEM_ATOM_UDEF_STEREO_COUNT>
0

> <PUBCHEM_BOND_DEF_STEREO_COUNT>
0

> <PUBCHEM_BOND_UDEF_STEREO_COUNT>
0

> <PUBCHEM_ISOTOPIC_ATOM_COUNT>
0

> <PUBCHEM_COMPONENT_COUNT>
1

> <PUBCHEM_CACTVS_TAUTO_COUNT>
174

> <PUBCHEM_CONFORMER_ID>
0050977600000001

> <PUBCHEM_MMFF94_ENERGY>
79.2051

> <PUBCHEM_FEATURE_SELFOVERLAP>
50.776

> <PUBCHEM_SHAPE_FINGERPRINT>
10062212 137 18113622287585563379
10319926 262 18269822139585817994
10912923 1 17748829630820060926
11045977 3 18059851753434025776
11370993 144 17060070194036718571
11545043 162 18200879479032149878
12236239 1 17676494921566363222
12403259 415 17847062173215408214
12553582 1 18335427884821855155
12616971 3 17022621948759430219
13140716 1 18339647836567301017
13583140 156 18057304129690565606
13675066 3 17989770003112852359
13782708 43 17846222120747224302
14386348 63 17917435298027703270
15099037 37 18342172271760775893
15196674 1 18410580625471844157
15880784 105 16630519635548229719
15961568 22 18337952406923316588
17349148 13 17385443206998959762
17804303 29 18412830192023841585
17844677 252 16773802476157885616
1813 80 17749382710959975756
18186145 218 12179842792603919972
18222031 100 18340768238198495582
18681886 176 18335150825662037830
18785283 64 17772739709720941576
19141452 34 17846503664401063959
200 152 16370444436453271268
20028762 73 18056765549377431463
20600515 1 18411980239160115549
21033648 29 17346306077354145402
21065201 7 18340491054284406198
21267235 1 18336558191713374555
21728266 224 18187917383106134411
22646028 1 17749107785829301714
2297311 6 18341344326599170286
23366157 5 17825394238932236213
23402539 116 18409451370947539359
23557571 272 18272095937768416228
23559900 14 18270692948104364902
2838139 119 14907068037669751649
3004659 81 18040720298228782630
335352 9 18409733972302641509
3411729 13 18195244653665228040
474 4 16951991646107380036
5104073 3 18267596891328301203
573450 72 18186800262006735147
59682541 52 13696686192307217867
602551 16 18411418410440623730
633830 44 14045741569256280724
67856867 119 18114467876526160340
7495541 125 17988927765149223126
77492 1 17531256019658734332
9709674 26 18120661489965261995

> <PUBCHEM_SHAPE_MULTIPOLES>
432.24
11.81
2.28
1.32
4.57
0.58
0.2
-4.2
2.84
-3.49
0.02
2.76
-0.07
0.86

> <PUBCHEM_SHAPE_SELFOVERLAP>
961.999

> <PUBCHEM_SHAPE_VOLUME>
229.3

> <PUBCHEM_COORDINATE_TYPE>
2
5
10

> <minimizedAffinity>
-7.57458

> <CNNscore>
0.3586979508

> <CNNaffinity>
4.9211702347

> <CNN_VS>
1.7652137280

> <CNNaffinity_variance>
0.2127885520

$$$$
5281654


 27 29  0  0  0  0  0  0  0  0999 V2000
  -22.1081   -4.7042   10.1632 O   0  0  0  0  0  0  0  0  0  0  0  0
  -25.5841   -4.0470    9.1270 O   0  0  0  0  0  0  0  0  0  0  0  0
  -23.6354   -1.0375   12.9398 O   0  0  0  0  0  0  0  0  0  0  0  0
  -25.1464   -2.1664   11.1290 O   0  0  0  0  0  0  0  0  0  0  0  0
  -19.2416   -2.7729   13.4165 O   0  0  0  0  0  0  0  0  0  0  0  0
  -22.9301   -2.8695   11.5231 C   0  0  0  0  0  0  0  0  0  0  0  0
  -23.3272   -4.7525    9.5056 C   0  0  0  0  0  0  0  0  0  0  0  0
  -21.9327   -3.7667   11.1479 C   0  0  0  0  0  0  0  0  0  0  0  0
  -24.3730   -3.9509    9.7777 C   0  0  0  0  0  0  0  0  0  0  0  0
  -24.2308   -2.9246   10.8384 C   0  0  0  0  0  0  0  0  0  0  0  0
  -22.6947   -1.9356   12.5354 C   0  0  0  0  0  0  0  0  0  0  0  0
  -20.6913   -3.7361   11.7837 C   0  0  0  0  0  0  0  0  0  0  0  0
  -20.4522   -2.8050   12.7946 C   0  0  0  0  0  0  0  0  0  0  0  0
  -21.4520   -1.9066   13.1694 C   0  0  0  0  0  0  0  0  0  0  0  0
  -25.7039   -4.6859    8.4522 H   0  0  0  0  0  0  0  0  0  0  0  0
  -24.4804   -1.0298   12.5351 H   0  0  0  0  0  0  0  0  0  0  0  0
  -18.5698   -3.3759   13.1654 H   0  0  0  0  0  0  0  0  0  0  0  0
  -23.5455   -8.7717    5.5746 O   0  0  0  0  0  0  0  0  0  0  0  0
  -23.3825   -5.8033    8.4737 C   0  0  0  0  0  0  0  0  0  0  0  0
  -22.7629   -5.6032    7.2398 C   0  0  0  0  0  0  0  0  0  0  0  0
  -24.0547   -6.9987    8.7301 C   0  0  0  0  0  0  0  0  0  0  0  0
  -22.8155   -6.5977    6.2631 C   0  0  0  0  0  0  0  0  0  0  0  0
  -24.1072   -7.9931    7.7535 C   0  0  0  0  0  0  0  0  0  0  0  0
  -23.4876   -7.7926    6.5201 C   0  0  0  0  0  0  0  0  0  0  0  0
  -23.1320   -8.6452    4.7433 H   0  0  0  0  0  0  0  0  0  0  0  0
  -22.2066   -6.3902    5.0622 O   0  0  0  0  0  0  0  0  0  0  0  0
  -20.7852   -6.5013    5.0285 C   0  0  0  0  0  0  0  0  0  0  0  0
  1  7  1  0  0  0
  1  8  1  0  0  0
  2  9  1  0  0  0
  3 11  1  0  0  0
 26 22  1  0  0  0
 26 27  1  0  0  0
  4 10  2  0  0  0
  5 13  1  0  0  0
 18 24  1  0  0  0
  6  8  1  0  0  0
  6 10  1  0  0  0
  6 11  2  0  0  0
  7 19  1  0  0  0
  7  9  2  0  0  0
  8 12  2  0  0  0
 19 20  2  0  0  0
 19 21  1  0  0  0
  9 10  1  0  0  0
 11 14  1  0  0  0
 12 13  1  0  0  0
 20 22  1  0  0  0
 21 23  2  0  0  0
 13 14  2  0  0  0
 22 24  2  0  0  0
 23 24  1  0  0  0
  2 15  1  0  0  0
  3 16  1  0  0  0
  5 17  1  0  0  0
 18 25  1  0  0  0
M  END
> <PUBCHEM_COMPOUND_CID>
5281654

> <PUBCHEM_CONFORMER_RMSD>
0.6

> <PUBCHEM_CONFORMER_DIVERSEORDER>
1
5
3
4
2
6

> <PUBCHEM_MMFF94_PARTIAL_CHARGES>
32
1 -0.16
10 0.08
11 0.03
12 0.09
13 0.47
14 0.08
15 -0.15
16 -0.15
17 -0.15
18 0.08
19 -0.15
2 -0.53
20 0.08
21 -0.15
22 0.08
23 0.28
24 0.15
25 0.15
26 0.15
27 0.15
28 0.15
29 0.45
3 -0.53
30 0.45
31 0.45
32 0.45
4 -0.36
5 -0.57
6 -0.53
7 -0.53
8 0.09
9 0.05

> <PUBCHEM_EFFECTIVE_ROTOR_COUNT>
2

> <PUBCHEM_PHARMACOPHORE_FEATURES>
10
1 1 acceptor
1 2 donor
1 3 donor
1 4 acceptor
1 5 acceptor
1 6 donor
1 7 donor
6 1 8 9 10 12 13 rings
6 11 16 17 20 21 22 rings
6 8 10 14 15 18 19 rings

> <PUBCHEM_HEAVY_ATOM_COUNT>
23

> <PUBCHEM_ATOM_DEF_STEREO_COUNT>
0

> <PUBCHEM_ATOM_UDEF_STEREO_COUNT>
0

> <PUBCHEM_BOND_DEF_STEREO_COUNT>
0

> <PUBCHEM_BOND_UDEF_STEREO_COUNT>
0

> <PUBCHEM_ISOTOPIC_ATOM_COUNT>
0

> <PUBCHEM_COMPONENT_COUNT>
1

> <PUBCHEM_CACTVS_TAUTO_COUNT>
174

> <PUBCHEM_CONFORMER_ID>
0050977600000001

> <PUBCHEM_MMFF94_ENERGY>
79.2051

> <PUBCHEM_FEATURE_SELFOVERLAP>
50.776

> <PUBCHEM_SHAPE_FINGERPRINT>
10062212 137 18113622287585563379
10319926 262 18269822139585817994
10912923 1 17748829630820060926
11045977 3 18059851753434025776
11370993 144 17060070194036718571
11545043 162 18200879479032149878
12236239 1 17676494921566363222
12403259 415 17847062173215408214
12553582 1 18335427884821855155
12616971 3 17022621948759430219
13140716 1 18339647836567301017
13583140 156 18057304129690565606
13675066 3 17989770003112852359
13782708 43 17846222120747224302
14386348 63 17917435298027703270
15099037 37 18342172271760775893
15196674 1 18410580625471844157
15880784 105 16630519635548229719
15961568 22 18337952406923316588
17349148 13 17385443206998959762
17804303 29 18412830192023841585
17844677 252 16773802476157885616
1813 80 17749382710959975756
18186145 218 12179842792603919972
18222031 100 18340768238198495582
18681886 176 18335150825662037830
18785283 64 17772739709720941576
19141452 34 17846503664401063959
200 152 16370444436453271268
20028762 73 18056765549377431463
20600515 1 18411980239160115549
21033648 29 17346306077354145402
21065201 7 18340491054284406198
21267235 1 18336558191713374555
21728266 224 18187917383106134411
22646028 1 17749107785829301714
2297311 6 18341344326599170286
23366157 5 17825394238932236213
23402539 116 18409451370947539359
23557571 272 18272095937768416228
23559900 14 18270692948104364902
2838139 119 14907068037669751649
3004659 81 18040720298228782630
335352 9 18409733972302641509
3411729 13 18195244653665228040
474 4 16951991646107380036
5104073 3 18267596891328301203
573450 72 18186800262006735147
59682541 52 13696686192307217867
602551 16 18411418410440623730
633830 44 14045741569256280724
67856867 119 18114467876526160340
7495541 125 17988927765149223126
77492 1 17531256019658734332
9709674 26 18120661489965261995

> <PUBCHEM_SHAPE_MULTIPOLES>
432.24
11.81
2.28
1.32
4.57
0.58
0.2
-4.2
2.84
-3.49
0.02
2.76
-0.07
0.86

> <PUBCHEM_SHAPE_SELFOVERLAP>
961.999

> <PUBCHEM_SHAPE_VOLUME>
229.3

> <PUBCHEM_COORDINATE_TYPE>
2
5
10

> <minimizedAffinity>
-4.72523

> <CNNscore>
0.3406942487

> <CNNaffinity>
4.5820331573

> <CNN_VS>
1.5610723495

> <CNNaffinity_variance>
0.3581308722

$$$$
