5317750


 23 25  0  0  0  0  0  0  0  0999 V2000
  -25.1049   -2.3083   10.6515 O   0  0  0  0  0  0  0  0  0  0  0  0
  -24.6953   -1.8943    6.6131 O   0  0  0  0  0  0  0  0  0  0  0  0
  -23.5722   -6.7936   10.5054 O   0  0  0  0  0  0  0  0  0  0  0  0
  -24.5053   -3.2774    8.5087 C   0  0  0  0  0  0  0  0  0  0  0  0
  -25.3444   -0.9088    8.6811 C   0  0  0  0  0  0  0  0  0  0  0  0
  -24.6542   -3.3578    9.8927 C   0  0  0  0  0  0  0  0  0  0  0  0
  -24.8401   -2.0158    7.8226 C   0  0  0  0  0  0  0  0  0  0  0  0
  -24.0405   -4.3796    7.7863 C   0  0  0  0  0  0  0  0  0  0  0  0
  -24.3390   -4.5404   10.5625 C   0  0  0  0  0  0  0  0  0  0  0  0
  -23.7265   -5.5616    8.4584 C   0  0  0  0  0  0  0  0  0  0  0  0
  -25.4336   -1.1450    9.9986 C   0  0  0  0  0  0  0  0  0  0  0  0
  -23.8752   -5.6421    9.8434 C   0  0  0  0  0  0  0  0  0  0  0  0
  -23.6746   -6.8401   11.4357 H   0  0  0  0  0  0  0  0  0  0  0  0
  -26.8970    4.0546    6.5354 O   0  0  0  0  0  0  0  0  0  0  0  0
  -25.7511    0.3895    8.1192 C   0  0  0  0  0  0  0  0  0  0  0  0
  -27.0433    0.5636    7.6193 C   0  0  0  0  0  0  0  0  0  0  0  0
  -24.8452    1.4518    8.0849 C   0  0  0  0  0  0  0  0  0  0  0  0
  -27.4278    1.7944    7.0873 C   0  0  0  0  0  0  0  0  0  0  0  0
  -25.2297    2.6826    7.5530 C   0  0  0  0  0  0  0  0  0  0  0  0
  -26.5212    2.8541    7.0542 C   0  0  0  0  0  0  0  0  0  0  0  0
  -27.7646    4.1693    6.2005 H   0  0  0  0  0  0  0  0  0  0  0  0
  -23.2754   -6.6340    7.7490 O   0  0  0  0  0  0  0  0  0  0  0  0
  -21.8980   -6.6333    7.3796 C   0  0  0  0  0  0  0  0  0  0  0  0
  1  6  1  0  0  0
  1 11  1  0  0  0
 22 10  1  0  0  0
 22 23  1  0  0  0
  2  7  2  0  0  0
  3 12  1  0  0  0
 14 20  1  0  0  0
  4  6  1  0  0  0
  4  7  1  0  0  0
  4  8  2  0  0  0
  5  7  1  0  0  0
  5 15  1  0  0  0
  5 11  2  0  0  0
  6  9  2  0  0  0
 15 16  1  0  0  0
 15 17  2  0  0  0
  8 10  1  0  0  0
  9 12  1  0  0  0
 10 12  2  0  0  0
 16 18  2  0  0  0
 17 19  1  0  0  0
 18 20  1  0  0  0
 19 20  2  0  0  0
  3 13  1  0  0  0
 14 21  1  0  0  0
M  END
> <PUBCHEM_COMPOUND_CID>
5317750

> <PUBCHEM_CONFORMER_RMSD>
0.6

> <PUBCHEM_CONFORMER_DIVERSEORDER>
1
2
3

> <PUBCHEM_MMFF94_PARTIAL_CHARGES>
30
1 -0.16
10 0.03
11 -0.15
12 -0.15
13 0.08
14 -0.07
15 0.08
16 -0.15
17 -0.15
18 -0.15
19 -0.15
2 -0.36
20 0.08
21 0.28
22 0.15
23 0.15
24 0.15
25 0.15
26 0.15
27 0.15
28 0.15
29 0.45
3 -0.57
33 0.45
4 -0.53
5 -0.53
6 0.09
7 -0.01
8 0.08
9 0.47

> <PUBCHEM_EFFECTIVE_ROTOR_COUNT>
2

> <PUBCHEM_PHARMACOPHORE_FEATURES>
8
1 1 acceptor
1 2 acceptor
1 3 acceptor
1 4 donor
1 5 donor
6 1 6 7 8 9 14 rings
6 10 16 17 18 19 20 rings
6 6 8 11 12 13 15 rings

> <PUBCHEM_HEAVY_ATOM_COUNT>
21

> <PUBCHEM_ATOM_DEF_STEREO_COUNT>
0

> <PUBCHEM_ATOM_UDEF_STEREO_COUNT>
0

> <PUBCHEM_BOND_DEF_STEREO_COUNT>
0

> <PUBCHEM_BOND_UDEF_STEREO_COUNT>
0

> <PUBCHEM_ISOTOPIC_ATOM_COUNT>
0

> <PUBCHEM_COMPONENT_COUNT>
1

> <PUBCHEM_CACTVS_TAUTO_COUNT>
10

> <PUBCHEM_CONFORMER_ID>
0051247600000001

> <PUBCHEM_MMFF94_ENERGY>
73.7807

> <PUBCHEM_FEATURE_SELFOVERLAP>
40.625

> <PUBCHEM_SHAPE_FINGERPRINT>
10 15 18115580582747215088
10912923 1 17561083630825683025
11471102 20 18411418427657214700
11796584 16 17022621991725045226
12107183 9 17054453751335123499
12236239 1 17632580457386520145
12616971 3 18060415824658462189
13140716 1 18270959154451537530
13533116 47 18342737403932357450
13544653 18 18408889529127523389
13685833 64 18408327696450947243
13760787 5 18342175570121696404
13862211 1 18412260606056083486
14386348 63 18113339730287526777
14573314 32 17313100834948787495
15196674 1 18411700946042219188
15788980 27 18410008827938280781
17349148 13 18131072631839150299
17844677 252 18261115149222097805
17862501 102 17775567537515094961
1813 80 18200609019966234412
19489759 90 16660360381463576101
200 152 18273494572556909289
20028762 73 18131628980486776607
20645477 70 18409166584915176366
21033648 29 18188474857235008477
21033650 10 15430878683713381732
21065201 7 17022617589663147513
21267235 1 18341055125662232614
21279426 13 18189893128260252477
21641784 216 18189071857663279660
21682296 61 18268153058917204654
2297311 6 16805045108257496205
23175994 123 18187087269518891477
23402539 116 18202279165327930125
23557571 272 17167855370447539285
23559900 14 17458347450406566522
26918003 58 18334579070445540545
2871803 45 18187364303135037872
3004659 81 18040435460925623146
3411729 13 15768630149184477880
345986 75 17988639636803915624
34797466 226 16443357489092153039
34934 24 18270112547972937556
3545911 37 18409167744883121108
4340502 62 17312817204183201410
465052 167 18411142441258662542
5104073 3 18341328882266312376
5281201 14 17967253095898037916
542803 24 17060341829375047369
602551 16 14764053606134550085

> <PUBCHEM_SHAPE_MULTIPOLES>
402.82
12.92
1.79
0.94
4.91
0.1
-0.05
-4.42
-0.59
-2.52
-0.18
0.91
-0.12
0

> <PUBCHEM_SHAPE_SELFOVERLAP>
893.815

> <PUBCHEM_SHAPE_VOLUME>
215.4

> <PUBCHEM_COORDINATE_TYPE>
2
5
10

> <minimizedAffinity>
-2.44526

> <CNNscore>
0.7158505917

> <CNNaffinity>
4.3483967781

> <CNN_VS>
3.1128025055

> <CNNaffinity_variance>
0.3659037352

$$$$
5317750


 23 25  0  0  0  0  0  0  0  0999 V2000
  -25.5750   -4.7261   10.1302 O   0  0  0  0  0  0  0  0  0  0  0  0
  -24.4130   -4.6697    6.2193 O   0  0  0  0  0  0  0  0  0  0  0  0
  -25.8310    0.0066   10.2858 O   0  0  0  0  0  0  0  0  0  0  0  0
  -25.0206   -3.4519    8.1403 C   0  0  0  0  0  0  0  0  0  0  0  0
  -24.8972   -5.9677    8.1559 C   0  0  0  0  0  0  0  0  0  0  0  0
  -25.4255   -3.5324    9.4721 C   0  0  0  0  0  0  0  0  0  0  0  0
  -24.7419   -4.6954    7.3982 C   0  0  0  0  0  0  0  0  0  0  0  0
  -24.8861   -2.2069    7.5203 C   0  0  0  0  0  0  0  0  0  0  0  0
  -25.6987   -2.3686   10.1916 C   0  0  0  0  0  0  0  0  0  0  0  0
  -25.1591   -1.0443    8.2422 C   0  0  0  0  0  0  0  0  0  0  0  0
  -25.2923   -5.8768    9.4347 C   0  0  0  0  0  0  0  0  0  0  0  0
  -25.5647   -1.1246    9.5749 C   0  0  0  0  0  0  0  0  0  0  0  0
  -26.1029   -0.0554   11.1803 H   0  0  0  0  0  0  0  0  0  0  0  0
  -23.8148  -10.9730    5.8267 O   0  0  0  0  0  0  0  0  0  0  0  0
  -24.6133   -7.2771    7.5463 C   0  0  0  0  0  0  0  0  0  0  0  0
  -23.3193   -7.8007    7.5800 C   0  0  0  0  0  0  0  0  0  0  0  0
  -25.6383   -8.0001    6.9324 C   0  0  0  0  0  0  0  0  0  0  0  0
  -23.0513   -9.0417    7.0024 C   0  0  0  0  0  0  0  0  0  0  0  0
  -25.3704   -9.2412    6.3548 C   0  0  0  0  0  0  0  0  0  0  0  0
  -24.0768   -9.7622    6.3898 C   0  0  0  0  0  0  0  0  0  0  0  0
  -22.9458  -11.3225    5.8505 H   0  0  0  0  0  0  0  0  0  0  0  0
  -25.0246    0.1674    7.6334 O   0  0  0  0  0  0  0  0  0  0  0  0
  -25.2441    0.2126    6.2251 C   0  0  0  0  0  0  0  0  0  0  0  0
  1  6  1  0  0  0
  1 11  1  0  0  0
 22 10  1  0  0  0
 22 23  1  0  0  0
  2  7  2  0  0  0
  3 12  1  0  0  0
 14 20  1  0  0  0
  4  6  1  0  0  0
  4  7  1  0  0  0
  4  8  2  0  0  0
  5  7  1  0  0  0
  5 15  1  0  0  0
  5 11  2  0  0  0
  6  9  2  0  0  0
 15 16  1  0  0  0
 15 17  2  0  0  0
  8 10  1  0  0  0
  9 12  1  0  0  0
 10 12  2  0  0  0
 16 18  2  0  0  0
 17 19  1  0  0  0
 18 20  1  0  0  0
 19 20  2  0  0  0
  3 13  1  0  0  0
 14 21  1  0  0  0
M  END
> <PUBCHEM_COMPOUND_CID>
5317750

> <PUBCHEM_CONFORMER_RMSD>
0.6

> <PUBCHEM_CONFORMER_DIVERSEORDER>
1
2
3

> <PUBCHEM_MMFF94_PARTIAL_CHARGES>
30
1 -0.16
10 0.03
11 -0.15
12 -0.15
13 0.08
14 -0.07
15 0.08
16 -0.15
17 -0.15
18 -0.15
19 -0.15
2 -0.36
20 0.08
21 0.28
22 0.15
23 0.15
24 0.15
25 0.15
26 0.15
27 0.15
28 0.15
29 0.45
3 -0.57
33 0.45
4 -0.53
5 -0.53
6 0.09
7 -0.01
8 0.08
9 0.47

> <PUBCHEM_EFFECTIVE_ROTOR_COUNT>
2

> <PUBCHEM_PHARMACOPHORE_FEATURES>
8
1 1 acceptor
1 2 acceptor
1 3 acceptor
1 4 donor
1 5 donor
6 1 6 7 8 9 14 rings
6 10 16 17 18 19 20 rings
6 6 8 11 12 13 15 rings

> <PUBCHEM_HEAVY_ATOM_COUNT>
21

> <PUBCHEM_ATOM_DEF_STEREO_COUNT>
0

> <PUBCHEM_ATOM_UDEF_STEREO_COUNT>
0

> <PUBCHEM_BOND_DEF_STEREO_COUNT>
0

> <PUBCHEM_BOND_UDEF_STEREO_COUNT>
0

> <PUBCHEM_ISOTOPIC_ATOM_COUNT>
0

> <PUBCHEM_COMPONENT_COUNT>
1

> <PUBCHEM_CACTVS_TAUTO_COUNT>
10

> <PUBCHEM_CONFORMER_ID>
0051247600000001

> <PUBCHEM_MMFF94_ENERGY>
73.7807

> <PUBCHEM_FEATURE_SELFOVERLAP>
40.625

> <PUBCHEM_SHAPE_FINGERPRINT>
10 15 18115580582747215088
10912923 1 17561083630825683025
11471102 20 18411418427657214700
11796584 16 17022621991725045226
12107183 9 17054453751335123499
12236239 1 17632580457386520145
12616971 3 18060415824658462189
13140716 1 18270959154451537530
13533116 47 18342737403932357450
13544653 18 18408889529127523389
13685833 64 18408327696450947243
13760787 5 18342175570121696404
13862211 1 18412260606056083486
14386348 63 18113339730287526777
14573314 32 17313100834948787495
15196674 1 18411700946042219188
15788980 27 18410008827938280781
17349148 13 18131072631839150299
17844677 252 18261115149222097805
17862501 102 17775567537515094961
1813 80 18200609019966234412
19489759 90 16660360381463576101
200 152 18273494572556909289
20028762 73 18131628980486776607
20645477 70 18409166584915176366
21033648 29 18188474857235008477
21033650 10 15430878683713381732
21065201 7 17022617589663147513
21267235 1 18341055125662232614
21279426 13 18189893128260252477
21641784 216 18189071857663279660
21682296 61 18268153058917204654
2297311 6 16805045108257496205
23175994 123 18187087269518891477
23402539 116 18202279165327930125
23557571 272 17167855370447539285
23559900 14 17458347450406566522
26918003 58 18334579070445540545
2871803 45 18187364303135037872
3004659 81 18040435460925623146
3411729 13 15768630149184477880
345986 75 17988639636803915624
34797466 226 16443357489092153039
34934 24 18270112547972937556
3545911 37 18409167744883121108
4340502 62 17312817204183201410
465052 167 18411142441258662542
5104073 3 18341328882266312376
5281201 14 17967253095898037916
542803 24 17060341829375047369
602551 16 14764053606134550085

> <PUBCHEM_SHAPE_MULTIPOLES>
402.82
12.92
1.79
0.94
4.91
0.1
-0.05
-4.42
-0.59
-2.52
-0.18
0.91
-0.12
0

> <PUBCHEM_SHAPE_SELFOVERLAP>
893.815

> <PUBCHEM_SHAPE_VOLUME>
215.4

> <PUBCHEM_COORDINATE_TYPE>
2
5
10

> <minimizedAffinity>
-2.76972

> <CNNscore>
0.6538254619

> <CNNaffinity>
4.4692311287

> <CNN_VS>
2.9220972061

> <CNNaffinity_variance>
0.3787855208

$$$$
5317750


 23 25  0  0  0  0  0  0  0  0999 V2000
  -24.8108   -3.7088   11.9469 O   0  0  0  0  0  0  0  0  0  0  0  0
  -27.1410   -3.1057    8.6522 O   0  0  0  0  0  0  0  0  0  0  0  0
  -25.6695    0.6709   13.5498 O   0  0  0  0  0  0  0  0  0  0  0  0
  -26.2355   -2.2376   10.6444 C   0  0  0  0  0  0  0  0  0  0  0  0
  -25.7108   -4.5741    9.8636 C   0  0  0  0  0  0  0  0  0  0  0  0
  -25.4370   -2.5038   11.7560 C   0  0  0  0  0  0  0  0  0  0  0  0
  -26.4241   -3.2887    9.6275 C   0  0  0  0  0  0  0  0  0  0  0  0
  -26.8502   -0.9907   10.5027 C   0  0  0  0  0  0  0  0  0  0  0  0
  -25.2487   -1.5251   12.7324 C   0  0  0  0  0  0  0  0  0  0  0  0
  -26.6598   -0.0132   11.4802 C   0  0  0  0  0  0  0  0  0  0  0  0
  -24.9770   -4.6729   10.9823 C   0  0  0  0  0  0  0  0  0  0  0  0
  -25.8610   -0.2796   12.5928 C   0  0  0  0  0  0  0  0  0  0  0  0
  -25.1317    0.4847   14.2941 H   0  0  0  0  0  0  0  0  0  0  0  0
  -25.9821   -8.8436    6.2102 O   0  0  0  0  0  0  0  0  0  0  0  0
  -25.7821   -5.6916    8.9082 C   0  0  0  0  0  0  0  0  0  0  0  0
  -26.8336   -6.6078    8.9777 C   0  0  0  0  0  0  0  0  0  0  0  0
  -24.7978   -5.8386    7.9286 C   0  0  0  0  0  0  0  0  0  0  0  0
  -26.9005   -7.6663    8.0717 C   0  0  0  0  0  0  0  0  0  0  0  0
  -24.8646   -6.8970    7.0225 C   0  0  0  0  0  0  0  0  0  0  0  0
  -25.9161   -7.8110    7.0940 C   0  0  0  0  0  0  0  0  0  0  0  0
  -26.6885   -9.4573    6.2586 H   0  0  0  0  0  0  0  0  0  0  0  0
  -27.2600    1.2017   11.3362 O   0  0  0  0  0  0  0  0  0  0  0  0
  -26.6736    2.1075   10.4039 C   0  0  0  0  0  0  0  0  0  0  0  0
  1  6  1  0  0  0
  1 11  1  0  0  0
 22 10  1  0  0  0
 22 23  1  0  0  0
  2  7  2  0  0  0
  3 12  1  0  0  0
 14 20  1  0  0  0
  4  6  1  0  0  0
  4  7  1  0  0  0
  4  8  2  0  0  0
  5  7  1  0  0  0
  5 15  1  0  0  0
  5 11  2  0  0  0
  6  9  2  0  0  0
 15 16  1  0  0  0
 15 17  2  0  0  0
  8 10  1  0  0  0
  9 12  1  0  0  0
 10 12  2  0  0  0
 16 18  2  0  0  0
 17 19  1  0  0  0
 18 20  1  0  0  0
 19 20  2  0  0  0
  3 13  1  0  0  0
 14 21  1  0  0  0
M  END
> <PUBCHEM_COMPOUND_CID>
5317750

> <PUBCHEM_CONFORMER_RMSD>
0.6

> <PUBCHEM_CONFORMER_DIVERSEORDER>
1
2
3

> <PUBCHEM_MMFF94_PARTIAL_CHARGES>
30
1 -0.16
10 0.03
11 -0.15
12 -0.15
13 0.08
14 -0.07
15 0.08
16 -0.15
17 -0.15
18 -0.15
19 -0.15
2 -0.36
20 0.08
21 0.28
22 0.15
23 0.15
24 0.15
25 0.15
26 0.15
27 0.15
28 0.15
29 0.45
3 -0.57
33 0.45
4 -0.53
5 -0.53
6 0.09
7 -0.01
8 0.08
9 0.47

> <PUBCHEM_EFFECTIVE_ROTOR_COUNT>
2

> <PUBCHEM_PHARMACOPHORE_FEATURES>
8
1 1 acceptor
1 2 acceptor
1 3 acceptor
1 4 donor
1 5 donor
6 1 6 7 8 9 14 rings
6 10 16 17 18 19 20 rings
6 6 8 11 12 13 15 rings

> <PUBCHEM_HEAVY_ATOM_COUNT>
21

> <PUBCHEM_ATOM_DEF_STEREO_COUNT>
0

> <PUBCHEM_ATOM_UDEF_STEREO_COUNT>
0

> <PUBCHEM_BOND_DEF_STEREO_COUNT>
0

> <PUBCHEM_BOND_UDEF_STEREO_COUNT>
0

> <PUBCHEM_ISOTOPIC_ATOM_COUNT>
0

> <PUBCHEM_COMPONENT_COUNT>
1

> <PUBCHEM_CACTVS_TAUTO_COUNT>
10

> <PUBCHEM_CONFORMER_ID>
0051247600000001

> <PUBCHEM_MMFF94_ENERGY>
73.7807

> <PUBCHEM_FEATURE_SELFOVERLAP>
40.625

> <PUBCHEM_SHAPE_FINGERPRINT>
10 15 18115580582747215088
10912923 1 17561083630825683025
11471102 20 18411418427657214700
11796584 16 17022621991725045226
12107183 9 17054453751335123499
12236239 1 17632580457386520145
12616971 3 18060415824658462189
13140716 1 18270959154451537530
13533116 47 18342737403932357450
13544653 18 18408889529127523389
13685833 64 18408327696450947243
13760787 5 18342175570121696404
13862211 1 18412260606056083486
14386348 63 18113339730287526777
14573314 32 17313100834948787495
15196674 1 18411700946042219188
15788980 27 18410008827938280781
17349148 13 18131072631839150299
17844677 252 18261115149222097805
17862501 102 17775567537515094961
1813 80 18200609019966234412
19489759 90 16660360381463576101
200 152 18273494572556909289
20028762 73 18131628980486776607
20645477 70 18409166584915176366
21033648 29 18188474857235008477
21033650 10 15430878683713381732
21065201 7 17022617589663147513
21267235 1 18341055125662232614
21279426 13 18189893128260252477
21641784 216 18189071857663279660
21682296 61 18268153058917204654
2297311 6 16805045108257496205
23175994 123 18187087269518891477
23402539 116 18202279165327930125
23557571 272 17167855370447539285
23559900 14 17458347450406566522
26918003 58 18334579070445540545
2871803 45 18187364303135037872
3004659 81 18040435460925623146
3411729 13 15768630149184477880
345986 75 17988639636803915624
34797466 226 16443357489092153039
34934 24 18270112547972937556
3545911 37 18409167744883121108
4340502 62 17312817204183201410
465052 167 18411142441258662542
5104073 3 18341328882266312376
5281201 14 17967253095898037916
542803 24 17060341829375047369
602551 16 14764053606134550085

> <PUBCHEM_SHAPE_MULTIPOLES>
402.82
12.92
1.79
0.94
4.91
0.1
-0.05
-4.42
-0.59
-2.52
-0.18
0.91
-0.12
0

> <PUBCHEM_SHAPE_SELFOVERLAP>
893.815

> <PUBCHEM_SHAPE_VOLUME>
215.4

> <PUBCHEM_COORDINATE_TYPE>
2
5
10

> <minimizedAffinity>
-3.07711

> <CNNscore>
0.5689015985

> <CNNaffinity>
4.3320684433

> <CNN_VS>
2.4645206928

> <CNNaffinity_variance>
0.3177004755

$$$$
5317750


 23 25  0  0  0  0  0  0  0  0999 V2000
  -17.2195   -0.8748   15.6010 O   0  0  0  0  0  0  0  0  0  0  0  0
  -21.1511   -0.5977   14.5452 O   0  0  0  0  0  0  0  0  0  0  0  0
  -18.3172   -2.8259   19.7816 O   0  0  0  0  0  0  0  0  0  0  0  0
  -19.5554   -1.2274   16.1576 C   0  0  0  0  0  0  0  0  0  0  0  0
  -18.8787   -0.1828   13.9679 C   0  0  0  0  0  0  0  0  0  0  0  0
  -18.1967   -1.3076   16.4602 C   0  0  0  0  0  0  0  0  0  0  0  0
  -19.9701   -0.6587   14.8618 C   0  0  0  0  0  0  0  0  0  0  0  0
  -20.5077   -1.6854   17.0721 C   0  0  0  0  0  0  0  0  0  0  0  0
  -17.7822   -1.8463   17.6787 C   0  0  0  0  0  0  0  0  0  0  0  0
  -20.0906   -2.2232   18.2903 C   0  0  0  0  0  0  0  0  0  0  0  0
  -17.6189   -0.3275   14.4058 C   0  0  0  0  0  0  0  0  0  0  0  0
  -18.7309   -2.3038   18.5932 C   0  0  0  0  0  0  0  0  0  0  0  0
  -17.4024   -2.8767   19.9778 H   0  0  0  0  0  0  0  0  0  0  0  0
  -19.9366    2.1990    8.9822 O   0  0  0  0  0  0  0  0  0  0  0  0
  -19.1560    0.4408   12.6637 C   0  0  0  0  0  0  0  0  0  0  0  0
  -19.5730    1.7718   12.5972 C   0  0  0  0  0  0  0  0  0  0  0  0
  -19.0023   -0.2974   11.4883 C   0  0  0  0  0  0  0  0  0  0  0  0
  -19.8353    2.3620   11.3608 C   0  0  0  0  0  0  0  0  0  0  0  0
  -19.2644    0.2927   10.2518 C   0  0  0  0  0  0  0  0  0  0  0  0
  -19.6809    1.6226   10.1880 C   0  0  0  0  0  0  0  0  0  0  0  0
  -20.2163    3.0923    8.9398 H   0  0  0  0  0  0  0  0  0  0  0  0
  -21.0234   -2.6667   19.1793 O   0  0  0  0  0  0  0  0  0  0  0  0
  -22.1988   -3.2671   18.6394 C   0  0  0  0  0  0  0  0  0  0  0  0
  1  6  1  0  0  0
  1 11  1  0  0  0
 22 10  1  0  0  0
 22 23  1  0  0  0
  2  7  2  0  0  0
  3 12  1  0  0  0
 14 20  1  0  0  0
  4  6  1  0  0  0
  4  7  1  0  0  0
  4  8  2  0  0  0
  5  7  1  0  0  0
  5 15  1  0  0  0
  5 11  2  0  0  0
  6  9  2  0  0  0
 15 16  1  0  0  0
 15 17  2  0  0  0
  8 10  1  0  0  0
  9 12  1  0  0  0
 10 12  2  0  0  0
 16 18  2  0  0  0
 17 19  1  0  0  0
 18 20  1  0  0  0
 19 20  2  0  0  0
  3 13  1  0  0  0
 14 21  1  0  0  0
M  END
> <PUBCHEM_COMPOUND_CID>
5317750

> <PUBCHEM_CONFORMER_RMSD>
0.6

> <PUBCHEM_CONFORMER_DIVERSEORDER>
1
2
3

> <PUBCHEM_MMFF94_PARTIAL_CHARGES>
30
1 -0.16
10 0.03
11 -0.15
12 -0.15
13 0.08
14 -0.07
15 0.08
16 -0.15
17 -0.15
18 -0.15
19 -0.15
2 -0.36
20 0.08
21 0.28
22 0.15
23 0.15
24 0.15
25 0.15
26 0.15
27 0.15
28 0.15
29 0.45
3 -0.57
33 0.45
4 -0.53
5 -0.53
6 0.09
7 -0.01
8 0.08
9 0.47

> <PUBCHEM_EFFECTIVE_ROTOR_COUNT>
2

> <PUBCHEM_PHARMACOPHORE_FEATURES>
8
1 1 acceptor
1 2 acceptor
1 3 acceptor
1 4 donor
1 5 donor
6 1 6 7 8 9 14 rings
6 10 16 17 18 19 20 rings
6 6 8 11 12 13 15 rings

> <PUBCHEM_HEAVY_ATOM_COUNT>
21

> <PUBCHEM_ATOM_DEF_STEREO_COUNT>
0

> <PUBCHEM_ATOM_UDEF_STEREO_COUNT>
0

> <PUBCHEM_BOND_DEF_STEREO_COUNT>
0

> <PUBCHEM_BOND_UDEF_STEREO_COUNT>
0

> <PUBCHEM_ISOTOPIC_ATOM_COUNT>
0

> <PUBCHEM_COMPONENT_COUNT>
1

> <PUBCHEM_CACTVS_TAUTO_COUNT>
10

> <PUBCHEM_CONFORMER_ID>
0051247600000001

> <PUBCHEM_MMFF94_ENERGY>
73.7807

> <PUBCHEM_FEATURE_SELFOVERLAP>
40.625

> <PUBCHEM_SHAPE_FINGERPRINT>
10 15 18115580582747215088
10912923 1 17561083630825683025
11471102 20 18411418427657214700
11796584 16 17022621991725045226
12107183 9 17054453751335123499
12236239 1 17632580457386520145
12616971 3 18060415824658462189
13140716 1 18270959154451537530
13533116 47 18342737403932357450
13544653 18 18408889529127523389
13685833 64 18408327696450947243
13760787 5 18342175570121696404
13862211 1 18412260606056083486
14386348 63 18113339730287526777
14573314 32 17313100834948787495
15196674 1 18411700946042219188
15788980 27 18410008827938280781
17349148 13 18131072631839150299
17844677 252 18261115149222097805
17862501 102 17775567537515094961
1813 80 18200609019966234412
19489759 90 16660360381463576101
200 152 18273494572556909289
20028762 73 18131628980486776607
20645477 70 18409166584915176366
21033648 29 18188474857235008477
21033650 10 15430878683713381732
21065201 7 17022617589663147513
21267235 1 18341055125662232614
21279426 13 18189893128260252477
21641784 216 18189071857663279660
21682296 61 18268153058917204654
2297311 6 16805045108257496205
23175994 123 18187087269518891477
23402539 116 18202279165327930125
23557571 272 17167855370447539285
23559900 14 17458347450406566522
26918003 58 18334579070445540545
2871803 45 18187364303135037872
3004659 81 18040435460925623146
3411729 13 15768630149184477880
345986 75 17988639636803915624
34797466 226 16443357489092153039
34934 24 18270112547972937556
3545911 37 18409167744883121108
4340502 62 17312817204183201410
465052 167 18411142441258662542
5104073 3 18341328882266312376
5281201 14 17967253095898037916
542803 24 17060341829375047369
602551 16 14764053606134550085

> <PUBCHEM_SHAPE_MULTIPOLES>
402.82
12.92
1.79
0.94
4.91
0.1
-0.05
-4.42
-0.59
-2.52
-0.18
0.91
-0.12
0

> <PUBCHEM_SHAPE_SELFOVERLAP>
893.815

> <PUBCHEM_SHAPE_VOLUME>
215.4

> <PUBCHEM_COORDINATE_TYPE>
2
5
10

> <minimizedAffinity>
4.82890

> <CNNscore>
0.5607486963

> <CNNaffinity>
5.2349481583

> <CNN_VS>
2.9354903698

> <CNNaffinity_variance>
0.5811055899

$$$$
5317750


 23 25  0  0  0  0  0  0  0  0999 V2000
  -20.3341    1.6241   16.0276 O   0  0  0  0  0  0  0  0  0  0  0  0
  -17.9091   -0.5103   13.5353 O   0  0  0  0  0  0  0  0  0  0  0  0
  -20.0654   -1.7038   19.3954 O   0  0  0  0  0  0  0  0  0  0  0  0
  -19.0152   -0.3698   15.6087 C   0  0  0  0  0  0  0  0  0  0  0  0
  -19.2288    1.4426   13.8726 C   0  0  0  0  0  0  0  0  0  0  0  0
  -19.8385    0.4078   16.4221 C   0  0  0  0  0  0  0  0  0  0  0  0
  -18.6533    0.1277   14.2685 C   0  0  0  0  0  0  0  0  0  0  0  0
  -18.5384   -1.6019   16.0640 C   0  0  0  0  0  0  0  0  0  0  0  0
  -20.1897   -0.0418   17.6953 C   0  0  0  0  0  0  0  0  0  0  0  0
  -18.8916   -2.0498   17.3376 C   0  0  0  0  0  0  0  0  0  0  0  0
  -20.0072    2.0674   14.7690 C   0  0  0  0  0  0  0  0  0  0  0  0
  -19.7153   -1.2715   18.1518 C   0  0  0  0  0  0  0  0  0  0  0  0
  -20.6189   -1.1756   19.9364 H   0  0  0  0  0  0  0  0  0  0  0  0
  -18.2730    3.7060    8.8117 O   0  0  0  0  0  0  0  0  0  0  0  0
  -18.9791    2.0354   12.5486 C   0  0  0  0  0  0  0  0  0  0  0  0
  -19.0146    3.4214   12.3827 C   0  0  0  0  0  0  0  0  0  0  0  0
  -18.7055    1.2126   11.4539 C   0  0  0  0  0  0  0  0  0  0  0  0
  -18.7776    3.9822   11.1277 C   0  0  0  0  0  0  0  0  0  0  0  0
  -18.4684    1.7733   10.1989 C   0  0  0  0  0  0  0  0  0  0  0  0
  -18.5044    3.1583   10.0357 C   0  0  0  0  0  0  0  0  0  0  0  0
  -18.2972    4.6363    8.7026 H   0  0  0  0  0  0  0  0  0  0  0  0
  -18.4255   -3.2529   17.7760 O   0  0  0  0  0  0  0  0  0  0  0  0
  -17.9375   -3.3096   19.1148 C   0  0  0  0  0  0  0  0  0  0  0  0
  1  6  1  0  0  0
  1 11  1  0  0  0
 22 10  1  0  0  0
 22 23  1  0  0  0
  2  7  2  0  0  0
  3 12  1  0  0  0
 14 20  1  0  0  0
  4  6  1  0  0  0
  4  7  1  0  0  0
  4  8  2  0  0  0
  5  7  1  0  0  0
  5 15  1  0  0  0
  5 11  2  0  0  0
  6  9  2  0  0  0
 15 16  1  0  0  0
 15 17  2  0  0  0
  8 10  1  0  0  0
  9 12  1  0  0  0
 10 12  2  0  0  0
 16 18  2  0  0  0
 17 19  1  0  0  0
 18 20  1  0  0  0
 19 20  2  0  0  0
  3 13  1  0  0  0
 14 21  1  0  0  0
M  END
> <PUBCHEM_COMPOUND_CID>
5317750

> <PUBCHEM_CONFORMER_RMSD>
0.6

> <PUBCHEM_CONFORMER_DIVERSEORDER>
1
2
3

> <PUBCHEM_MMFF94_PARTIAL_CHARGES>
30
1 -0.16
10 0.03
11 -0.15
12 -0.15
13 0.08
14 -0.07
15 0.08
16 -0.15
17 -0.15
18 -0.15
19 -0.15
2 -0.36
20 0.08
21 0.28
22 0.15
23 0.15
24 0.15
25 0.15
26 0.15
27 0.15
28 0.15
29 0.45
3 -0.57
33 0.45
4 -0.53
5 -0.53
6 0.09
7 -0.01
8 0.08
9 0.47

> <PUBCHEM_EFFECTIVE_ROTOR_COUNT>
2

> <PUBCHEM_PHARMACOPHORE_FEATURES>
8
1 1 acceptor
1 2 acceptor
1 3 acceptor
1 4 donor
1 5 donor
6 1 6 7 8 9 14 rings
6 10 16 17 18 19 20 rings
6 6 8 11 12 13 15 rings

> <PUBCHEM_HEAVY_ATOM_COUNT>
21

> <PUBCHEM_ATOM_DEF_STEREO_COUNT>
0

> <PUBCHEM_ATOM_UDEF_STEREO_COUNT>
0

> <PUBCHEM_BOND_DEF_STEREO_COUNT>
0

> <PUBCHEM_BOND_UDEF_STEREO_COUNT>
0

> <PUBCHEM_ISOTOPIC_ATOM_COUNT>
0

> <PUBCHEM_COMPONENT_COUNT>
1

> <PUBCHEM_CACTVS_TAUTO_COUNT>
10

> <PUBCHEM_CONFORMER_ID>
0051247600000001

> <PUBCHEM_MMFF94_ENERGY>
73.7807

> <PUBCHEM_FEATURE_SELFOVERLAP>
40.625

> <PUBCHEM_SHAPE_FINGERPRINT>
10 15 18115580582747215088
10912923 1 17561083630825683025
11471102 20 18411418427657214700
11796584 16 17022621991725045226
12107183 9 17054453751335123499
12236239 1 17632580457386520145
12616971 3 18060415824658462189
13140716 1 18270959154451537530
13533116 47 18342737403932357450
13544653 18 18408889529127523389
13685833 64 18408327696450947243
13760787 5 18342175570121696404
13862211 1 18412260606056083486
14386348 63 18113339730287526777
14573314 32 17313100834948787495
15196674 1 18411700946042219188
15788980 27 18410008827938280781
17349148 13 18131072631839150299
17844677 252 18261115149222097805
17862501 102 17775567537515094961
1813 80 18200609019966234412
19489759 90 16660360381463576101
200 152 18273494572556909289
20028762 73 18131628980486776607
20645477 70 18409166584915176366
21033648 29 18188474857235008477
21033650 10 15430878683713381732
21065201 7 17022617589663147513
21267235 1 18341055125662232614
21279426 13 18189893128260252477
21641784 216 18189071857663279660
21682296 61 18268153058917204654
2297311 6 16805045108257496205
23175994 123 18187087269518891477
23402539 116 18202279165327930125
23557571 272 17167855370447539285
23559900 14 17458347450406566522
26918003 58 18334579070445540545
2871803 45 18187364303135037872
3004659 81 18040435460925623146
3411729 13 15768630149184477880
345986 75 17988639636803915624
34797466 226 16443357489092153039
34934 24 18270112547972937556
3545911 37 18409167744883121108
4340502 62 17312817204183201410
465052 167 18411142441258662542
5104073 3 18341328882266312376
5281201 14 17967253095898037916
542803 24 17060341829375047369
602551 16 14764053606134550085

> <PUBCHEM_SHAPE_MULTIPOLES>
402.82
12.92
1.79
0.94
4.91
0.1
-0.05
-4.42
-0.59
-2.52
-0.18
0.91
-0.12
0

> <PUBCHEM_SHAPE_SELFOVERLAP>
893.815

> <PUBCHEM_SHAPE_VOLUME>
215.4

> <PUBCHEM_COORDINATE_TYPE>
2
5
10

> <minimizedAffinity>
0.72641

> <CNNscore>
0.5437074900

> <CNNaffinity>
4.7932853699

> <CNN_VS>
2.6061451435

> <CNNaffinity_variance>
0.1000494212

$$$$
5317750


 23 25  0  0  0  0  0  0  0  0999 V2000
  -26.5176   -3.4670   13.0726 O   0  0  0  0  0  0  0  0  0  0  0  0
  -23.9569   -1.8016   10.3676 O   0  0  0  0  0  0  0  0  0  0  0  0
  -25.9910   -7.7728   11.1565 O   0  0  0  0  0  0  0  0  0  0  0  0
  -25.0597   -3.7287   11.1500 C   0  0  0  0  0  0  0  0  0  0  0  0
  -25.4130   -1.4777   12.2233 C   0  0  0  0  0  0  0  0  0  0  0  0
  -25.9331   -4.2450   12.1064 C   0  0  0  0  0  0  0  0  0  0  0  0
  -24.7417   -2.2890   11.1708 C   0  0  0  0  0  0  0  0  0  0  0  0
  -24.4925   -4.5698   10.1890 C   0  0  0  0  0  0  0  0  0  0  0  0
  -26.2442   -5.6051   12.1078 C   0  0  0  0  0  0  0  0  0  0  0  0
  -24.8057   -5.9297   10.1919 C   0  0  0  0  0  0  0  0  0  0  0  0
  -26.2302   -2.1235   13.0689 C   0  0  0  0  0  0  0  0  0  0  0  0
  -25.6795   -6.4465   11.1492 C   0  0  0  0  0  0  0  0  0  0  0  0
  -26.5785   -8.1125   11.8025 H   0  0  0  0  0  0  0  0  0  0  0  0
  -24.6490    4.0806   12.6372 O   0  0  0  0  0  0  0  0  0  0  0  0
  -25.2138   -0.0232   12.3314 C   0  0  0  0  0  0  0  0  0  0  0  0
  -26.2842    0.8083   12.6674 C   0  0  0  0  0  0  0  0  0  0  0  0
  -23.9527    0.5295   12.0985 C   0  0  0  0  0  0  0  0  0  0  0  0
  -26.0943    2.1863   12.7698 C   0  0  0  0  0  0  0  0  0  0  0  0
  -23.7628    1.9076   12.2010 C   0  0  0  0  0  0  0  0  0  0  0  0
  -24.8336    2.7362   12.5368 C   0  0  0  0  0  0  0  0  0  0  0  0
  -25.3686    4.6368   12.8628 H   0  0  0  0  0  0  0  0  0  0  0  0
  -24.2513   -6.7452    9.2515 O   0  0  0  0  0  0  0  0  0  0  0  0
  -22.9038   -7.1595    9.4666 C   0  0  0  0  0  0  0  0  0  0  0  0
  1  6  1  0  0  0
  1 11  1  0  0  0
 22 10  1  0  0  0
 22 23  1  0  0  0
  2  7  2  0  0  0
  3 12  1  0  0  0
 14 20  1  0  0  0
  4  6  1  0  0  0
  4  7  1  0  0  0
  4  8  2  0  0  0
  5  7  1  0  0  0
  5 15  1  0  0  0
  5 11  2  0  0  0
  6  9  2  0  0  0
 15 16  1  0  0  0
 15 17  2  0  0  0
  8 10  1  0  0  0
  9 12  1  0  0  0
 10 12  2  0  0  0
 16 18  2  0  0  0
 17 19  1  0  0  0
 18 20  1  0  0  0
 19 20  2  0  0  0
  3 13  1  0  0  0
 14 21  1  0  0  0
M  END
> <PUBCHEM_COMPOUND_CID>
5317750

> <PUBCHEM_CONFORMER_RMSD>
0.6

> <PUBCHEM_CONFORMER_DIVERSEORDER>
1
2
3

> <PUBCHEM_MMFF94_PARTIAL_CHARGES>
30
1 -0.16
10 0.03
11 -0.15
12 -0.15
13 0.08
14 -0.07
15 0.08
16 -0.15
17 -0.15
18 -0.15
19 -0.15
2 -0.36
20 0.08
21 0.28
22 0.15
23 0.15
24 0.15
25 0.15
26 0.15
27 0.15
28 0.15
29 0.45
3 -0.57
33 0.45
4 -0.53
5 -0.53
6 0.09
7 -0.01
8 0.08
9 0.47

> <PUBCHEM_EFFECTIVE_ROTOR_COUNT>
2

> <PUBCHEM_PHARMACOPHORE_FEATURES>
8
1 1 acceptor
1 2 acceptor
1 3 acceptor
1 4 donor
1 5 donor
6 1 6 7 8 9 14 rings
6 10 16 17 18 19 20 rings
6 6 8 11 12 13 15 rings

> <PUBCHEM_HEAVY_ATOM_COUNT>
21

> <PUBCHEM_ATOM_DEF_STEREO_COUNT>
0

> <PUBCHEM_ATOM_UDEF_STEREO_COUNT>
0

> <PUBCHEM_BOND_DEF_STEREO_COUNT>
0

> <PUBCHEM_BOND_UDEF_STEREO_COUNT>
0

> <PUBCHEM_ISOTOPIC_ATOM_COUNT>
0

> <PUBCHEM_COMPONENT_COUNT>
1

> <PUBCHEM_CACTVS_TAUTO_COUNT>
10

> <PUBCHEM_CONFORMER_ID>
0051247600000001

> <PUBCHEM_MMFF94_ENERGY>
73.7807

> <PUBCHEM_FEATURE_SELFOVERLAP>
40.625

> <PUBCHEM_SHAPE_FINGERPRINT>
10 15 18115580582747215088
10912923 1 17561083630825683025
11471102 20 18411418427657214700
11796584 16 17022621991725045226
12107183 9 17054453751335123499
12236239 1 17632580457386520145
12616971 3 18060415824658462189
13140716 1 18270959154451537530
13533116 47 18342737403932357450
13544653 18 18408889529127523389
13685833 64 18408327696450947243
13760787 5 18342175570121696404
13862211 1 18412260606056083486
14386348 63 18113339730287526777
14573314 32 17313100834948787495
15196674 1 18411700946042219188
15788980 27 18410008827938280781
17349148 13 18131072631839150299
17844677 252 18261115149222097805
17862501 102 17775567537515094961
1813 80 18200609019966234412
19489759 90 16660360381463576101
200 152 18273494572556909289
20028762 73 18131628980486776607
20645477 70 18409166584915176366
21033648 29 18188474857235008477
21033650 10 15430878683713381732
21065201 7 17022617589663147513
21267235 1 18341055125662232614
21279426 13 18189893128260252477
21641784 216 18189071857663279660
21682296 61 18268153058917204654
2297311 6 16805045108257496205
23175994 123 18187087269518891477
23402539 116 18202279165327930125
23557571 272 17167855370447539285
23559900 14 17458347450406566522
26918003 58 18334579070445540545
2871803 45 18187364303135037872
3004659 81 18040435460925623146
3411729 13 15768630149184477880
345986 75 17988639636803915624
34797466 226 16443357489092153039
34934 24 18270112547972937556
3545911 37 18409167744883121108
4340502 62 17312817204183201410
465052 167 18411142441258662542
5104073 3 18341328882266312376
5281201 14 17967253095898037916
542803 24 17060341829375047369
602551 16 14764053606134550085

> <PUBCHEM_SHAPE_MULTIPOLES>
402.82
12.92
1.79
0.94
4.91
0.1
-0.05
-4.42
-0.59
-2.52
-0.18
0.91
-0.12
0

> <PUBCHEM_SHAPE_SELFOVERLAP>
893.815

> <PUBCHEM_SHAPE_VOLUME>
215.4

> <PUBCHEM_COORDINATE_TYPE>
2
5
10

> <minimizedAffinity>
-4.46349

> <CNNscore>
0.4457408190

> <CNNaffinity>
4.1055850983

> <CNN_VS>
1.8300268650

> <CNNaffinity_variance>
0.0626173988

$$$$
5317750


 23 25  0  0  0  0  0  0  0  0999 V2000
  -23.1637   -1.7427   12.0356 O   0  0  0  0  0  0  0  0  0  0  0  0
  -26.3225   -3.0107    9.7856 O   0  0  0  0  0  0  0  0  0  0  0  0
  -25.1870    2.4812   12.7798 O   0  0  0  0  0  0  0  0  0  0  0  0
  -25.3321   -1.2861   11.0455 C   0  0  0  0  0  0  0  0  0  0  0  0
  -24.1741   -3.4947   10.6909 C   0  0  0  0  0  0  0  0  0  0  0  0
  -24.2313   -0.9109   11.8146 C   0  0  0  0  0  0  0  0  0  0  0  0
  -25.3617   -2.6316   10.4427 C   0  0  0  0  0  0  0  0  0  0  0  0
  -26.3928   -0.3966   10.8549 C   0  0  0  0  0  0  0  0  0  0  0  0
  -24.1847    0.3557   12.3978 C   0  0  0  0  0  0  0  0  0  0  0  0
  -26.3435    0.8699   11.4387 C   0  0  0  0  0  0  0  0  0  0  0  0
  -23.1931   -2.9859   11.4515 C   0  0  0  0  0  0  0  0  0  0  0  0
  -25.2422    1.2455   12.2086 C   0  0  0  0  0  0  0  0  0  0  0  0
  -24.4441    2.7262   13.2955 H   0  0  0  0  0  0  0  0  0  0  0  0
  -23.7313   -8.6532    8.4901 O   0  0  0  0  0  0  0  0  0  0  0  0
  -24.0583   -4.8447   10.1158 C   0  0  0  0  0  0  0  0  0  0  0  0
  -24.6298   -5.9376   10.7707 C   0  0  0  0  0  0  0  0  0  0  0  0
  -23.3763   -5.0364    8.9123 C   0  0  0  0  0  0  0  0  0  0  0  0
  -24.5197   -7.2164   10.2247 C   0  0  0  0  0  0  0  0  0  0  0  0
  -23.2662   -6.3152    8.3662 C   0  0  0  0  0  0  0  0  0  0  0  0
  -23.8380   -7.4054    9.0224 C   0  0  0  0  0  0  0  0  0  0  0  0
  -24.1155   -9.3851    8.9312 H   0  0  0  0  0  0  0  0  0  0  0  0
  -27.3797    1.7343   11.2482 O   0  0  0  0  0  0  0  0  0  0  0  0
  -27.4588    2.3811    9.9797 C   0  0  0  0  0  0  0  0  0  0  0  0
  1  6  1  0  0  0
  1 11  1  0  0  0
 22 10  1  0  0  0
 22 23  1  0  0  0
  2  7  2  0  0  0
  3 12  1  0  0  0
 14 20  1  0  0  0
  4  6  1  0  0  0
  4  7  1  0  0  0
  4  8  2  0  0  0
  5  7  1  0  0  0
  5 15  1  0  0  0
  5 11  2  0  0  0
  6  9  2  0  0  0
 15 16  1  0  0  0
 15 17  2  0  0  0
  8 10  1  0  0  0
  9 12  1  0  0  0
 10 12  2  0  0  0
 16 18  2  0  0  0
 17 19  1  0  0  0
 18 20  1  0  0  0
 19 20  2  0  0  0
  3 13  1  0  0  0
 14 21  1  0  0  0
M  END
> <PUBCHEM_COMPOUND_CID>
5317750

> <PUBCHEM_CONFORMER_RMSD>
0.6

> <PUBCHEM_CONFORMER_DIVERSEORDER>
1
2
3

> <PUBCHEM_MMFF94_PARTIAL_CHARGES>
30
1 -0.16
10 0.03
11 -0.15
12 -0.15
13 0.08
14 -0.07
15 0.08
16 -0.15
17 -0.15
18 -0.15
19 -0.15
2 -0.36
20 0.08
21 0.28
22 0.15
23 0.15
24 0.15
25 0.15
26 0.15
27 0.15
28 0.15
29 0.45
3 -0.57
33 0.45
4 -0.53
5 -0.53
6 0.09
7 -0.01
8 0.08
9 0.47

> <PUBCHEM_EFFECTIVE_ROTOR_COUNT>
2

> <PUBCHEM_PHARMACOPHORE_FEATURES>
8
1 1 acceptor
1 2 acceptor
1 3 acceptor
1 4 donor
1 5 donor
6 1 6 7 8 9 14 rings
6 10 16 17 18 19 20 rings
6 6 8 11 12 13 15 rings

> <PUBCHEM_HEAVY_ATOM_COUNT>
21

> <PUBCHEM_ATOM_DEF_STEREO_COUNT>
0

> <PUBCHEM_ATOM_UDEF_STEREO_COUNT>
0

> <PUBCHEM_BOND_DEF_STEREO_COUNT>
0

> <PUBCHEM_BOND_UDEF_STEREO_COUNT>
0

> <PUBCHEM_ISOTOPIC_ATOM_COUNT>
0

> <PUBCHEM_COMPONENT_COUNT>
1

> <PUBCHEM_CACTVS_TAUTO_COUNT>
10

> <PUBCHEM_CONFORMER_ID>
0051247600000001

> <PUBCHEM_MMFF94_ENERGY>
73.7807

> <PUBCHEM_FEATURE_SELFOVERLAP>
40.625

> <PUBCHEM_SHAPE_FINGERPRINT>
10 15 18115580582747215088
10912923 1 17561083630825683025
11471102 20 18411418427657214700
11796584 16 17022621991725045226
12107183 9 17054453751335123499
12236239 1 17632580457386520145
12616971 3 18060415824658462189
13140716 1 18270959154451537530
13533116 47 18342737403932357450
13544653 18 18408889529127523389
13685833 64 18408327696450947243
13760787 5 18342175570121696404
13862211 1 18412260606056083486
14386348 63 18113339730287526777
14573314 32 17313100834948787495
15196674 1 18411700946042219188
15788980 27 18410008827938280781
17349148 13 18131072631839150299
17844677 252 18261115149222097805
17862501 102 17775567537515094961
1813 80 18200609019966234412
19489759 90 16660360381463576101
200 152 18273494572556909289
20028762 73 18131628980486776607
20645477 70 18409166584915176366
21033648 29 18188474857235008477
21033650 10 15430878683713381732
21065201 7 17022617589663147513
21267235 1 18341055125662232614
21279426 13 18189893128260252477
21641784 216 18189071857663279660
21682296 61 18268153058917204654
2297311 6 16805045108257496205
23175994 123 18187087269518891477
23402539 116 18202279165327930125
23557571 272 17167855370447539285
23559900 14 17458347450406566522
26918003 58 18334579070445540545
2871803 45 18187364303135037872
3004659 81 18040435460925623146
3411729 13 15768630149184477880
345986 75 17988639636803915624
34797466 226 16443357489092153039
34934 24 18270112547972937556
3545911 37 18409167744883121108
4340502 62 17312817204183201410
465052 167 18411142441258662542
5104073 3 18341328882266312376
5281201 14 17967253095898037916
542803 24 17060341829375047369
602551 16 14764053606134550085

> <PUBCHEM_SHAPE_MULTIPOLES>
402.82
12.92
1.79
0.94
4.91
0.1
-0.05
-4.42
-0.59
-2.52
-0.18
0.91
-0.12
0

> <PUBCHEM_SHAPE_SELFOVERLAP>
893.815

> <PUBCHEM_SHAPE_VOLUME>
215.4

> <PUBCHEM_COORDINATE_TYPE>
2
5
10

> <minimizedAffinity>
-3.76047

> <CNNscore>
0.4057742059

> <CNNaffinity>
4.2071108818

> <CNN_VS>
1.7071371078

> <CNNaffinity_variance>
0.1778575033

$$$$
5317750


 23 25  0  0  0  0  0  0  0  0999 V2000
  -22.3684   -2.6610   12.2952 O   0  0  0  0  0  0  0  0  0  0  0  0
  -19.0485   -4.1548   10.4526 O   0  0  0  0  0  0  0  0  0  0  0  0
  -24.8941   -6.5303   11.2281 O   0  0  0  0  0  0  0  0  0  0  0  0
  -21.3092   -4.4483   11.0404 C   0  0  0  0  0  0  0  0  0  0  0  0
  -20.0511   -2.3496   11.6380 C   0  0  0  0  0  0  0  0  0  0  0  0
  -22.4085   -3.8928   11.6939 C   0  0  0  0  0  0  0  0  0  0  0  0
  -20.0453   -3.6903   10.9904 C   0  0  0  0  0  0  0  0  0  0  0  0
  -21.4078   -5.7090   10.4458 C   0  0  0  0  0  0  0  0  0  0  0  0
  -23.6127   -4.5947   11.7569 C   0  0  0  0  0  0  0  0  0  0  0  0
  -22.6135   -6.4088   10.5096 C   0  0  0  0  0  0  0  0  0  0  0  0
  -21.1918   -1.9553   12.2238 C   0  0  0  0  0  0  0  0  0  0  0  0
  -23.7136   -5.8532   11.1638 C   0  0  0  0  0  0  0  0  0  0  0  0
  -25.6285   -6.1507   11.6692 H   0  0  0  0  0  0  0  0  0  0  0  0
  -15.5311    0.9997   11.5962 O   0  0  0  0  0  0  0  0  0  0  0  0
  -18.8682   -1.4737   11.6265 C   0  0  0  0  0  0  0  0  0  0  0  0
  -18.1412   -1.2921   10.4482 C   0  0  0  0  0  0  0  0  0  0  0  0
  -18.4695   -0.8210   12.7949 C   0  0  0  0  0  0  0  0  0  0  0  0
  -17.0206   -0.4617   10.4383 C   0  0  0  0  0  0  0  0  0  0  0  0
  -17.3489    0.0096   12.7851 C   0  0  0  0  0  0  0  0  0  0  0  0
  -16.6243    0.1894   11.6066 C   0  0  0  0  0  0  0  0  0  0  0  0
  -15.0448    1.1201   10.8044 H   0  0  0  0  0  0  0  0  0  0  0  0
  -22.7049   -7.6370    9.9266 O   0  0  0  0  0  0  0  0  0  0  0  0
  -22.9902   -7.6714    8.5298 C   0  0  0  0  0  0  0  0  0  0  0  0
  1  6  1  0  0  0
  1 11  1  0  0  0
 22 10  1  0  0  0
 22 23  1  0  0  0
  2  7  2  0  0  0
  3 12  1  0  0  0
 14 20  1  0  0  0
  4  6  1  0  0  0
  4  7  1  0  0  0
  4  8  2  0  0  0
  5  7  1  0  0  0
  5 15  1  0  0  0
  5 11  2  0  0  0
  6  9  2  0  0  0
 15 16  1  0  0  0
 15 17  2  0  0  0
  8 10  1  0  0  0
  9 12  1  0  0  0
 10 12  2  0  0  0
 16 18  2  0  0  0
 17 19  1  0  0  0
 18 20  1  0  0  0
 19 20  2  0  0  0
  3 13  1  0  0  0
 14 21  1  0  0  0
M  END
> <PUBCHEM_COMPOUND_CID>
5317750

> <PUBCHEM_CONFORMER_RMSD>
0.6

> <PUBCHEM_CONFORMER_DIVERSEORDER>
1
2
3

> <PUBCHEM_MMFF94_PARTIAL_CHARGES>
30
1 -0.16
10 0.03
11 -0.15
12 -0.15
13 0.08
14 -0.07
15 0.08
16 -0.15
17 -0.15
18 -0.15
19 -0.15
2 -0.36
20 0.08
21 0.28
22 0.15
23 0.15
24 0.15
25 0.15
26 0.15
27 0.15
28 0.15
29 0.45
3 -0.57
33 0.45
4 -0.53
5 -0.53
6 0.09
7 -0.01
8 0.08
9 0.47

> <PUBCHEM_EFFECTIVE_ROTOR_COUNT>
2

> <PUBCHEM_PHARMACOPHORE_FEATURES>
8
1 1 acceptor
1 2 acceptor
1 3 acceptor
1 4 donor
1 5 donor
6 1 6 7 8 9 14 rings
6 10 16 17 18 19 20 rings
6 6 8 11 12 13 15 rings

> <PUBCHEM_HEAVY_ATOM_COUNT>
21

> <PUBCHEM_ATOM_DEF_STEREO_COUNT>
0

> <PUBCHEM_ATOM_UDEF_STEREO_COUNT>
0

> <PUBCHEM_BOND_DEF_STEREO_COUNT>
0

> <PUBCHEM_BOND_UDEF_STEREO_COUNT>
0

> <PUBCHEM_ISOTOPIC_ATOM_COUNT>
0

> <PUBCHEM_COMPONENT_COUNT>
1

> <PUBCHEM_CACTVS_TAUTO_COUNT>
10

> <PUBCHEM_CONFORMER_ID>
0051247600000001

> <PUBCHEM_MMFF94_ENERGY>
73.7807

> <PUBCHEM_FEATURE_SELFOVERLAP>
40.625

> <PUBCHEM_SHAPE_FINGERPRINT>
10 15 18115580582747215088
10912923 1 17561083630825683025
11471102 20 18411418427657214700
11796584 16 17022621991725045226
12107183 9 17054453751335123499
12236239 1 17632580457386520145
12616971 3 18060415824658462189
13140716 1 18270959154451537530
13533116 47 18342737403932357450
13544653 18 18408889529127523389
13685833 64 18408327696450947243
13760787 5 18342175570121696404
13862211 1 18412260606056083486
14386348 63 18113339730287526777
14573314 32 17313100834948787495
15196674 1 18411700946042219188
15788980 27 18410008827938280781
17349148 13 18131072631839150299
17844677 252 18261115149222097805
17862501 102 17775567537515094961
1813 80 18200609019966234412
19489759 90 16660360381463576101
200 152 18273494572556909289
20028762 73 18131628980486776607
20645477 70 18409166584915176366
21033648 29 18188474857235008477
21033650 10 15430878683713381732
21065201 7 17022617589663147513
21267235 1 18341055125662232614
21279426 13 18189893128260252477
21641784 216 18189071857663279660
21682296 61 18268153058917204654
2297311 6 16805045108257496205
23175994 123 18187087269518891477
23402539 116 18202279165327930125
23557571 272 17167855370447539285
23559900 14 17458347450406566522
26918003 58 18334579070445540545
2871803 45 18187364303135037872
3004659 81 18040435460925623146
3411729 13 15768630149184477880
345986 75 17988639636803915624
34797466 226 16443357489092153039
34934 24 18270112547972937556
3545911 37 18409167744883121108
4340502 62 17312817204183201410
465052 167 18411142441258662542
5104073 3 18341328882266312376
5281201 14 17967253095898037916
542803 24 17060341829375047369
602551 16 14764053606134550085

> <PUBCHEM_SHAPE_MULTIPOLES>
402.82
12.92
1.79
0.94
4.91
0.1
-0.05
-4.42
-0.59
-2.52
-0.18
0.91
-0.12
0

> <PUBCHEM_SHAPE_SELFOVERLAP>
893.815

> <PUBCHEM_SHAPE_VOLUME>
215.4

> <PUBCHEM_COORDINATE_TYPE>
2
5
10

> <minimizedAffinity>
-6.82816

> <CNNscore>
0.3879168928

> <CNNaffinity>
4.7342262268

> <CNN_VS>
1.8364863396

> <CNNaffinity_variance>
0.1838212311

$$$$
5317750


 23 25  0  0  0  0  0  0  0  0999 V2000
  -19.4103    0.1554   18.5464 O   0  0  0  0  0  0  0  0  0  0  0  0
  -17.3382   -3.2972   19.2055 O   0  0  0  0  0  0  0  0  0  0  0  0
  -23.5721   -2.0601   19.0557 O   0  0  0  0  0  0  0  0  0  0  0  0
  -19.4259   -2.2277   19.0061 C   0  0  0  0  0  0  0  0  0  0  0  0
  -17.2642   -0.9708   18.7042 C   0  0  0  0  0  0  0  0  0  0  0  0
  -20.0808   -1.0167   18.7855 C   0  0  0  0  0  0  0  0  0  0  0  0
  -17.9518   -2.2607   18.9871 C   0  0  0  0  0  0  0  0  0  0  0  0
  -20.1616   -3.3913   19.2459 C   0  0  0  0  0  0  0  0  0  0  0  0
  -21.4748   -0.9620   18.8036 C   0  0  0  0  0  0  0  0  0  0  0  0
  -21.5557   -3.3342   19.2628 C   0  0  0  0  0  0  0  0  0  0  0  0
  -18.0377    0.1080   18.5102 C   0  0  0  0  0  0  0  0  0  0  0  0
  -22.2112   -2.1223   19.0424 C   0  0  0  0  0  0  0  0  0  0  0  0
  -24.0052   -1.2426   18.9068 H   0  0  0  0  0  0  0  0  0  0  0  0
  -11.6605   -0.5958   18.3757 O   0  0  0  0  0  0  0  0  0  0  0  0
  -15.7980   -0.8720   18.6180 C   0  0  0  0  0  0  0  0  0  0  0  0
  -15.1673    0.3627   18.7840 C   0  0  0  0  0  0  0  0  0  0  0  0
  -15.0332   -2.0138   18.3701 C   0  0  0  0  0  0  0  0  0  0  0  0
  -13.7779    0.4553   18.7025 C   0  0  0  0  0  0  0  0  0  0  0  0
  -13.6437   -1.9213   18.2886 C   0  0  0  0  0  0  0  0  0  0  0  0
  -13.0159   -0.6867   18.4549 C   0  0  0  0  0  0  0  0  0  0  0  0
  -11.2393    0.2337   18.4875 H   0  0  0  0  0  0  0  0  0  0  0  0
  -22.2684   -4.4722   19.4953 O   0  0  0  0  0  0  0  0  0  0  0  0
  -23.1873   -4.4497   20.5855 C   0  0  0  0  0  0  0  0  0  0  0  0
  1  6  1  0  0  0
  1 11  1  0  0  0
 22 10  1  0  0  0
 22 23  1  0  0  0
  2  7  2  0  0  0
  3 12  1  0  0  0
 14 20  1  0  0  0
  4  6  1  0  0  0
  4  7  1  0  0  0
  4  8  2  0  0  0
  5  7  1  0  0  0
  5 15  1  0  0  0
  5 11  2  0  0  0
  6  9  2  0  0  0
 15 16  1  0  0  0
 15 17  2  0  0  0
  8 10  1  0  0  0
  9 12  1  0  0  0
 10 12  2  0  0  0
 16 18  2  0  0  0
 17 19  1  0  0  0
 18 20  1  0  0  0
 19 20  2  0  0  0
  3 13  1  0  0  0
 14 21  1  0  0  0
M  END
> <PUBCHEM_COMPOUND_CID>
5317750

> <PUBCHEM_CONFORMER_RMSD>
0.6

> <PUBCHEM_CONFORMER_DIVERSEORDER>
1
2
3

> <PUBCHEM_MMFF94_PARTIAL_CHARGES>
30
1 -0.16
10 0.03
11 -0.15
12 -0.15
13 0.08
14 -0.07
15 0.08
16 -0.15
17 -0.15
18 -0.15
19 -0.15
2 -0.36
20 0.08
21 0.28
22 0.15
23 0.15
24 0.15
25 0.15
26 0.15
27 0.15
28 0.15
29 0.45
3 -0.57
33 0.45
4 -0.53
5 -0.53
6 0.09
7 -0.01
8 0.08
9 0.47

> <PUBCHEM_EFFECTIVE_ROTOR_COUNT>
2

> <PUBCHEM_PHARMACOPHORE_FEATURES>
8
1 1 acceptor
1 2 acceptor
1 3 acceptor
1 4 donor
1 5 donor
6 1 6 7 8 9 14 rings
6 10 16 17 18 19 20 rings
6 6 8 11 12 13 15 rings

> <PUBCHEM_HEAVY_ATOM_COUNT>
21

> <PUBCHEM_ATOM_DEF_STEREO_COUNT>
0

> <PUBCHEM_ATOM_UDEF_STEREO_COUNT>
0

> <PUBCHEM_BOND_DEF_STEREO_COUNT>
0

> <PUBCHEM_BOND_UDEF_STEREO_COUNT>
0

> <PUBCHEM_ISOTOPIC_ATOM_COUNT>
0

> <PUBCHEM_COMPONENT_COUNT>
1

> <PUBCHEM_CACTVS_TAUTO_COUNT>
10

> <PUBCHEM_CONFORMER_ID>
0051247600000001

> <PUBCHEM_MMFF94_ENERGY>
73.7807

> <PUBCHEM_FEATURE_SELFOVERLAP>
40.625

> <PUBCHEM_SHAPE_FINGERPRINT>
10 15 18115580582747215088
10912923 1 17561083630825683025
11471102 20 18411418427657214700
11796584 16 17022621991725045226
12107183 9 17054453751335123499
12236239 1 17632580457386520145
12616971 3 18060415824658462189
13140716 1 18270959154451537530
13533116 47 18342737403932357450
13544653 18 18408889529127523389
13685833 64 18408327696450947243
13760787 5 18342175570121696404
13862211 1 18412260606056083486
14386348 63 18113339730287526777
14573314 32 17313100834948787495
15196674 1 18411700946042219188
15788980 27 18410008827938280781
17349148 13 18131072631839150299
17844677 252 18261115149222097805
17862501 102 17775567537515094961
1813 80 18200609019966234412
19489759 90 16660360381463576101
200 152 18273494572556909289
20028762 73 18131628980486776607
20645477 70 18409166584915176366
21033648 29 18188474857235008477
21033650 10 15430878683713381732
21065201 7 17022617589663147513
21267235 1 18341055125662232614
21279426 13 18189893128260252477
21641784 216 18189071857663279660
21682296 61 18268153058917204654
2297311 6 16805045108257496205
23175994 123 18187087269518891477
23402539 116 18202279165327930125
23557571 272 17167855370447539285
23559900 14 17458347450406566522
26918003 58 18334579070445540545
2871803 45 18187364303135037872
3004659 81 18040435460925623146
3411729 13 15768630149184477880
345986 75 17988639636803915624
34797466 226 16443357489092153039
34934 24 18270112547972937556
3545911 37 18409167744883121108
4340502 62 17312817204183201410
465052 167 18411142441258662542
5104073 3 18341328882266312376
5281201 14 17967253095898037916
542803 24 17060341829375047369
602551 16 14764053606134550085

> <PUBCHEM_SHAPE_MULTIPOLES>
402.82
12.92
1.79
0.94
4.91
0.1
-0.05
-4.42
-0.59
-2.52
-0.18
0.91
-0.12
0

> <PUBCHEM_SHAPE_SELFOVERLAP>
893.815

> <PUBCHEM_SHAPE_VOLUME>
215.4

> <PUBCHEM_COORDINATE_TYPE>
2
5
10

> <minimizedAffinity>
59.20662

> <CNNscore>
0.3644838333

> <CNNaffinity>
4.6843361855

> <CNN_VS>
1.7073647976

> <CNNaffinity_variance>
0.3081510961

$$$$
