5391140
     RDKit          3D

 19 21  0  0  0  0  0  0  0  0999 V2000
   -0.2014    0.5756    0.1346 O   0  0  0  0  0  0  0  0  0  0  0  0
   -1.8283   -3.1211   -0.4009 O   0  0  0  0  0  0  0  0  0  0  0  0
   -4.4800    2.6268    0.2959 O   0  0  0  0  0  0  0  0  0  0  0  0
    4.4204    2.3836   -0.7105 O   0  0  0  0  0  0  0  0  0  0  0  0
   -2.1862   -0.8041   -0.1050 C   0  0  0  0  0  0  0  0  0  0  0  0
   -1.5643    0.4299    0.0777 C   0  0  0  0  0  0  0  0  0  0  0  0
    0.5899   -0.5545   -0.0042 C   0  0  0  0  0  0  0  0  0  0  0  0
    2.0395   -0.2855    0.0776 C   0  0  0  0  0  0  0  0  0  0  0  0
   -1.3501   -2.0064   -0.2429 C   0  0  0  0  0  0  0  0  0  0  0  0
    0.1103   -1.7963   -0.1782 C   0  0  0  0  0  0  0  0  0  0  0  0
   -3.5793   -0.8930   -0.1541 C   0  0  0  0  0  0  0  0  0  0  0  0
   -2.3344    1.5853    0.2131 C   0  0  0  0  0  0  0  0  0  0  0  0
    2.5529    0.9382   -0.3593 C   0  0  0  0  0  0  0  0  0  0  0  0
   -3.7261    1.5009    0.1643 C   0  0  0  0  0  0  0  0  0  0  0  0
    2.9046   -1.2547    0.5920 C   0  0  0  0  0  0  0  0  0  0  0  0
   -4.3469    0.2644   -0.0188 C   0  0  0  0  0  0  0  0  0  0  0  0
    3.9225    1.1913   -0.2823 C   0  0  0  0  0  0  0  0  0  0  0  0
    4.2741   -1.0017    0.6690 C   0  0  0  0  0  0  0  0  0  0  0  0
    4.7831    0.2213    0.2321 C   0  0  0  0  0  0  0  0  0  0  0  0
  1  6  1  0
  1  7  1  0
  2  9  2  0
  3 14  1  0
  4 17  1  0
  5  6  2  0
  5  9  1  0
  5 11  1  0
  6 12  1  0
  7  8  1  0
  7 10  2  0
  8 13  1  0
  8 15  2  0
  9 10  1  0
 11 16  2  0
 12 14  2  0
 13 17  2  0
 14 16  1  0
 15 18  1  0
 17 19  1  0
 18 19  2  0
M  END
>  <PUBCHEM_COMPOUND_CID>  (1) 
5391140

>  <PUBCHEM_CONFORMER_RMSD>  (1) 
0.6

>  <PUBCHEM_CONFORMER_DIVERSEORDER>  (1) 
1
3
5
2
4
6

>  <PUBCHEM_MMFF94_PARTIAL_CHARGES>  (1) 
29
1 -0.16
10 -0.14
11 -0.15
12 -0.15
13 -0.15
14 0.08
15 -0.15
16 -0.15
17 0.08
18 -0.15
19 -0.15
2 -0.57
20 0.15
21 0.15
22 0.15
23 0.15
24 0.15
25 0.15
26 0.15
27 0.15
28 0.45
29 0.45
3 -0.53
4 -0.53
5 0.09
6 0.08
7 0.05
8 0.03
9 0.47

>  <PUBCHEM_EFFECTIVE_ROTOR_COUNT>  (1) 
1

>  <PUBCHEM_PHARMACOPHORE_FEATURES>  (1) 
7
1 1 acceptor
1 2 acceptor
1 3 donor
1 4 donor
6 1 5 6 7 9 10 rings
6 5 6 11 12 14 16 rings
6 8 13 15 17 18 19 rings

>  <PUBCHEM_HEAVY_ATOM_COUNT>  (1) 
19

>  <PUBCHEM_ATOM_DEF_STEREO_COUNT>  (1) 
0

>  <PUBCHEM_ATOM_UDEF_STEREO_COUNT>  (1) 
0

>  <PUBCHEM_BOND_DEF_STEREO_COUNT>  (1) 
0

>  <PUBCHEM_BOND_UDEF_STEREO_COUNT>  (1) 
0

>  <PUBCHEM_ISOTOPIC_ATOM_COUNT>  (1) 
0

>  <PUBCHEM_COMPONENT_COUNT>  (1) 
1

>  <PUBCHEM_CACTVS_TAUTO_COUNT>  (1) 
15

>  <PUBCHEM_CONFORMER_ID>  (1) 
0052432400000001

>  <PUBCHEM_MMFF94_ENERGY>  (1) 
56.24

>  <PUBCHEM_FEATURE_SELFOVERLAP>  (1) 
35.55

>  <PUBCHEM_SHAPE_FINGERPRINT>  (1) 
10411042 1 17764023971247538183
10616163 171 18340206396663569878
12107183 9 18120083984162219642
12173636 292 18341324591097994070
12236239 1 18186516605170833426
122479 349 18335706030808521499
12251169 10 18408037395057954254
12390115 104 18129681720129959673
12403814 3 17968090915548062085
12788726 201 18047462602246754227
13167823 11 18335136505571419298
13583140 156 17313381210724963987
14739800 52 18126830811355286288
14767858 380 18271506643171306565
14790565 3 18341057320016500809
15042514 8 18267306611463768499
15196674 1 18410292501584812401
15442244 35 18336541634551002090
15669948 3 18270956963670044014
17492 89 18336547209224198594
17834072 32 18411703145123510001
18222031 100 12035748530083685265
19050596 39 18261105309937007370
204376 136 18340491062979608451
20510252 161 18273219690212391635
20715895 44 18048872992650854101
21267235 1 18408892845195723258
21524375 3 18341046324725623235
23227448 37 18340206396367683813
23366157 5 18118408332372998023
23402539 116 18201146681199345037
23402655 69 18408324410869394556
23503953 91 18336816542490854536
23559900 14 18058733490390738958
245318 6 16449267575194642308
2838139 119 17315329468305257485
335352 9 18338797789382443494
350125 39 18412829118746338905
3545911 37 18412826893699682034
38570 142 17388288803696207004
4214541 1 18410572885914142960
474 4 17532093967931437564
474229 33 18412263939641587203
5104073 3 18333729135014281200
633830 44 18410573946592139662
69090 78 18409444769577536707
7064713 232 18339920420323619672
77779 3 18408604768679828562
7832392 63 18409447012135982196
9709674 26 18342462542894507542

>  <PUBCHEM_SHAPE_MULTIPOLES>  (1) 
367.53
9.94
2.57
0.7
3.54
0.25
-0.01
-4.84
-0.47
-1.3
0.26
0.25
0
-1.12

>  <PUBCHEM_SHAPE_SELFOVERLAP>  (1) 
821.245

>  <PUBCHEM_SHAPE_VOLUME>  (1) 
194.1

>  <PUBCHEM_COORDINATE_TYPE>  (1) 
2
5
10

$$$$
