5391140


 21 23  0  0  0  0  0  0  0  0999 V2000
  -18.1893   -0.3245   14.1295 O   0  0  0  0  0  0  0  0  0  0  0  0
  -19.8980    3.2415   13.1482 O   0  0  0  0  0  0  0  0  0  0  0  0
  -15.8790   -0.5556    9.9884 O   0  0  0  0  0  0  0  0  0  0  0  0
  -18.4679    1.4698   12.5160 C   0  0  0  0  0  0  0  0  0  0  0  0
  -17.9166    0.2535   12.9156 C   0  0  0  0  0  0  0  0  0  0  0  0
  -19.0579    0.3278   14.9913 C   0  0  0  0  0  0  0  0  0  0  0  0
  -19.3822    2.1693   13.4316 C   0  0  0  0  0  0  0  0  0  0  0  0
  -19.6460    1.5046   14.7238 C   0  0  0  0  0  0  0  0  0  0  0  0
  -18.1536    2.0119   11.2676 C   0  0  0  0  0  0  0  0  0  0  0  0
  -17.0451   -0.4293   12.0667 C   0  0  0  0  0  0  0  0  0  0  0  0
  -16.7289    0.1086   10.8189 C   0  0  0  0  0  0  0  0  0  0  0  0
  -17.2820    1.3265   10.4205 C   0  0  0  0  0  0  0  0  0  0  0  0
  -15.5072   -1.3733   10.2550 H   0  0  0  0  0  0  0  0  0  0  0  0
  -21.8697   -0.7533   18.8291 O   0  0  0  0  0  0  0  0  0  0  0  0
  -19.2769   -0.3778   16.2698 C   0  0  0  0  0  0  0  0  0  0  0  0
  -20.4858   -0.2321   16.9547 C   0  0  0  0  0  0  0  0  0  0  0  0
  -18.2749   -1.1942   16.8007 C   0  0  0  0  0  0  0  0  0  0  0  0
  -20.6916   -0.8985   18.1628 C   0  0  0  0  0  0  0  0  0  0  0  0
  -18.4806   -1.8605   18.0087 C   0  0  0  0  0  0  0  0  0  0  0  0
  -19.6890   -1.7129   18.6896 C   0  0  0  0  0  0  0  0  0  0  0  0
  -22.5435   -0.2064   18.4758 H   0  0  0  0  0  0  0  0  0  0  0  0
  1  5  1  0  0  0
  1  6  1  0  0  0
  2  7  2  0  0  0
  3 11  1  0  0  0
 14 18  1  0  0  0
  4  5  2  0  0  0
  4  7  1  0  0  0
  4  9  1  0  0  0
  5 10  1  0  0  0
  6 15  1  0  0  0
  6  8  2  0  0  0
 15 16  1  0  0  0
 15 17  2  0  0  0
  7  8  1  0  0  0
  9 12  2  0  0  0
 10 11  2  0  0  0
 16 18  2  0  0  0
 11 12  1  0  0  0
 17 19  1  0  0  0
 18 20  1  0  0  0
 19 20  2  0  0  0
  3 13  1  0  0  0
 14 21  1  0  0  0
M  END
> <PUBCHEM_COMPOUND_CID>
5391140

> <PUBCHEM_CONFORMER_RMSD>
0.6

> <PUBCHEM_CONFORMER_DIVERSEORDER>
1
3
5
2
4
6

> <PUBCHEM_MMFF94_PARTIAL_CHARGES>
29
1 -0.16
10 -0.14
11 -0.15
12 -0.15
13 -0.15
14 0.08
15 -0.15
16 -0.15
17 0.08
18 -0.15
19 -0.15
2 -0.57
20 0.15
21 0.15
22 0.15
23 0.15
24 0.15
25 0.15
26 0.15
27 0.15
28 0.45
29 0.45
3 -0.53
4 -0.53
5 0.09
6 0.08
7 0.05
8 0.03
9 0.47

> <PUBCHEM_EFFECTIVE_ROTOR_COUNT>
1

> <PUBCHEM_PHARMACOPHORE_FEATURES>
7
1 1 acceptor
1 2 acceptor
1 3 donor
1 4 donor
6 1 5 6 7 9 10 rings
6 5 6 11 12 14 16 rings
6 8 13 15 17 18 19 rings

> <PUBCHEM_HEAVY_ATOM_COUNT>
19

> <PUBCHEM_ATOM_DEF_STEREO_COUNT>
0

> <PUBCHEM_ATOM_UDEF_STEREO_COUNT>
0

> <PUBCHEM_BOND_DEF_STEREO_COUNT>
0

> <PUBCHEM_BOND_UDEF_STEREO_COUNT>
0

> <PUBCHEM_ISOTOPIC_ATOM_COUNT>
0

> <PUBCHEM_COMPONENT_COUNT>
1

> <PUBCHEM_CACTVS_TAUTO_COUNT>
15

> <PUBCHEM_CONFORMER_ID>
0052432400000001

> <PUBCHEM_MMFF94_ENERGY>
56.24

> <PUBCHEM_FEATURE_SELFOVERLAP>
35.55

> <PUBCHEM_SHAPE_FINGERPRINT>
10411042 1 17764023971247538183
10616163 171 18340206396663569878
12107183 9 18120083984162219642
12173636 292 18341324591097994070
12236239 1 18186516605170833426
122479 349 18335706030808521499
12251169 10 18408037395057954254
12390115 104 18129681720129959673
12403814 3 17968090915548062085
12788726 201 18047462602246754227
13167823 11 18335136505571419298
13583140 156 17313381210724963987
14739800 52 18126830811355286288
14767858 380 18271506643171306565
14790565 3 18341057320016500809
15042514 8 18267306611463768499
15196674 1 18410292501584812401
15442244 35 18336541634551002090
15669948 3 18270956963670044014
17492 89 18336547209224198594
17834072 32 18411703145123510001
18222031 100 12035748530083685265
19050596 39 18261105309937007370
204376 136 18340491062979608451
20510252 161 18273219690212391635
20715895 44 18048872992650854101
21267235 1 18408892845195723258
21524375 3 18341046324725623235
23227448 37 18340206396367683813
23366157 5 18118408332372998023
23402539 116 18201146681199345037
23402655 69 18408324410869394556
23503953 91 18336816542490854536
23559900 14 18058733490390738958
245318 6 16449267575194642308
2838139 119 17315329468305257485
335352 9 18338797789382443494
350125 39 18412829118746338905
3545911 37 18412826893699682034
38570 142 17388288803696207004
4214541 1 18410572885914142960
474 4 17532093967931437564
474229 33 18412263939641587203
5104073 3 18333729135014281200
633830 44 18410573946592139662
69090 78 18409444769577536707
7064713 232 18339920420323619672
77779 3 18408604768679828562
7832392 63 18409447012135982196
9709674 26 18342462542894507542

> <PUBCHEM_SHAPE_MULTIPOLES>
367.53
9.94
2.57
0.7
3.54
0.25
-0.01
-4.84
-0.47
-1.3
0.26
0.25
0
-1.12

> <PUBCHEM_SHAPE_SELFOVERLAP>
821.245

> <PUBCHEM_SHAPE_VOLUME>
194.1

> <PUBCHEM_COORDINATE_TYPE>
2
5
10

> <minimizedAffinity>
-8.37693

> <CNNscore>
0.7376142144

> <CNNaffinity>
5.1090002060

> <CNN_VS>
3.7684712410

> <CNNaffinity_variance>
0.2774652839

$$$$
5391140


 21 23  0  0  0  0  0  0  0  0999 V2000
  -19.1152   -1.4395   14.3961 O   0  0  0  0  0  0  0  0  0  0  0  0
  -18.3123    2.4787   13.6202 O   0  0  0  0  0  0  0  0  0  0  0  0
  -17.9141   -2.7388    9.9905 O   0  0  0  0  0  0  0  0  0  0  0  0
  -18.3811    0.2565   12.8196 C   0  0  0  0  0  0  0  0  0  0  0  0
  -18.6724   -1.0653   13.1527 C   0  0  0  0  0  0  0  0  0  0  0  0
  -19.2875   -0.4569   15.3591 C   0  0  0  0  0  0  0  0  0  0  0  0
  -18.5534    1.3002   13.8417 C   0  0  0  0  0  0  0  0  0  0  0  0
  -19.0352    0.8470   15.1621 C   0  0  0  0  0  0  0  0  0  0  0  0
  -17.9321    0.5795   11.5370 C   0  0  0  0  0  0  0  0  0  0  0  0
  -18.5156   -2.0745   12.2023 C   0  0  0  0  0  0  0  0  0  0  0  0
  -18.0678   -1.7560   10.9200 C   0  0  0  0  0  0  0  0  0  0  0  0
  -17.7766   -0.4320   10.5884 C   0  0  0  0  0  0  0  0  0  0  0  0
  -18.1093   -3.6280   10.2122 H   0  0  0  0  0  0  0  0  0  0  0  0
  -18.6018   -3.1126   19.3940 O   0  0  0  0  0  0  0  0  0  0  0  0
  -19.7617   -0.9689   16.6603 C   0  0  0  0  0  0  0  0  0  0  0  0
  -18.9474   -1.8089   17.4240 C   0  0  0  0  0  0  0  0  0  0  0  0
  -21.0281   -0.6157   17.1335 C   0  0  0  0  0  0  0  0  0  0  0  0
  -19.3964   -2.2927   18.6529 C   0  0  0  0  0  0  0  0  0  0  0  0
  -21.4771   -1.0994   18.3622 C   0  0  0  0  0  0  0  0  0  0  0  0
  -20.6613   -1.9377   19.1221 C   0  0  0  0  0  0  0  0  0  0  0  0
  -17.7522   -3.3513   19.0794 H   0  0  0  0  0  0  0  0  0  0  0  0
  1  5  1  0  0  0
  1  6  1  0  0  0
  2  7  2  0  0  0
  3 11  1  0  0  0
 14 18  1  0  0  0
  4  5  2  0  0  0
  4  7  1  0  0  0
  4  9  1  0  0  0
  5 10  1  0  0  0
  6 15  1  0  0  0
  6  8  2  0  0  0
 15 16  1  0  0  0
 15 17  2  0  0  0
  7  8  1  0  0  0
  9 12  2  0  0  0
 10 11  2  0  0  0
 16 18  2  0  0  0
 11 12  1  0  0  0
 17 19  1  0  0  0
 18 20  1  0  0  0
 19 20  2  0  0  0
  3 13  1  0  0  0
 14 21  1  0  0  0
M  END
> <PUBCHEM_COMPOUND_CID>
5391140

> <PUBCHEM_CONFORMER_RMSD>
0.6

> <PUBCHEM_CONFORMER_DIVERSEORDER>
1
3
5
2
4
6

> <PUBCHEM_MMFF94_PARTIAL_CHARGES>
29
1 -0.16
10 -0.14
11 -0.15
12 -0.15
13 -0.15
14 0.08
15 -0.15
16 -0.15
17 0.08
18 -0.15
19 -0.15
2 -0.57
20 0.15
21 0.15
22 0.15
23 0.15
24 0.15
25 0.15
26 0.15
27 0.15
28 0.45
29 0.45
3 -0.53
4 -0.53
5 0.09
6 0.08
7 0.05
8 0.03
9 0.47

> <PUBCHEM_EFFECTIVE_ROTOR_COUNT>
1

> <PUBCHEM_PHARMACOPHORE_FEATURES>
7
1 1 acceptor
1 2 acceptor
1 3 donor
1 4 donor
6 1 5 6 7 9 10 rings
6 5 6 11 12 14 16 rings
6 8 13 15 17 18 19 rings

> <PUBCHEM_HEAVY_ATOM_COUNT>
19

> <PUBCHEM_ATOM_DEF_STEREO_COUNT>
0

> <PUBCHEM_ATOM_UDEF_STEREO_COUNT>
0

> <PUBCHEM_BOND_DEF_STEREO_COUNT>
0

> <PUBCHEM_BOND_UDEF_STEREO_COUNT>
0

> <PUBCHEM_ISOTOPIC_ATOM_COUNT>
0

> <PUBCHEM_COMPONENT_COUNT>
1

> <PUBCHEM_CACTVS_TAUTO_COUNT>
15

> <PUBCHEM_CONFORMER_ID>
0052432400000001

> <PUBCHEM_MMFF94_ENERGY>
56.24

> <PUBCHEM_FEATURE_SELFOVERLAP>
35.55

> <PUBCHEM_SHAPE_FINGERPRINT>
10411042 1 17764023971247538183
10616163 171 18340206396663569878
12107183 9 18120083984162219642
12173636 292 18341324591097994070
12236239 1 18186516605170833426
122479 349 18335706030808521499
12251169 10 18408037395057954254
12390115 104 18129681720129959673
12403814 3 17968090915548062085
12788726 201 18047462602246754227
13167823 11 18335136505571419298
13583140 156 17313381210724963987
14739800 52 18126830811355286288
14767858 380 18271506643171306565
14790565 3 18341057320016500809
15042514 8 18267306611463768499
15196674 1 18410292501584812401
15442244 35 18336541634551002090
15669948 3 18270956963670044014
17492 89 18336547209224198594
17834072 32 18411703145123510001
18222031 100 12035748530083685265
19050596 39 18261105309937007370
204376 136 18340491062979608451
20510252 161 18273219690212391635
20715895 44 18048872992650854101
21267235 1 18408892845195723258
21524375 3 18341046324725623235
23227448 37 18340206396367683813
23366157 5 18118408332372998023
23402539 116 18201146681199345037
23402655 69 18408324410869394556
23503953 91 18336816542490854536
23559900 14 18058733490390738958
245318 6 16449267575194642308
2838139 119 17315329468305257485
335352 9 18338797789382443494
350125 39 18412829118746338905
3545911 37 18412826893699682034
38570 142 17388288803696207004
4214541 1 18410572885914142960
474 4 17532093967931437564
474229 33 18412263939641587203
5104073 3 18333729135014281200
633830 44 18410573946592139662
69090 78 18409444769577536707
7064713 232 18339920420323619672
77779 3 18408604768679828562
7832392 63 18409447012135982196
9709674 26 18342462542894507542

> <PUBCHEM_SHAPE_MULTIPOLES>
367.53
9.94
2.57
0.7
3.54
0.25
-0.01
-4.84
-0.47
-1.3
0.26
0.25
0
-1.12

> <PUBCHEM_SHAPE_SELFOVERLAP>
821.245

> <PUBCHEM_SHAPE_VOLUME>
194.1

> <PUBCHEM_COORDINATE_TYPE>
2
5
10

> <minimizedAffinity>
-7.17642

> <CNNscore>
0.7132837176

> <CNNaffinity>
5.1096181870

> <CNN_VS>
3.6446075439

> <CNNaffinity_variance>
0.3938978314

$$$$
5391140


 21 23  0  0  0  0  0  0  0  0999 V2000
  -18.5991    0.1234   13.9630 O   0  0  0  0  0  0  0  0  0  0  0  0
  -19.4996    3.5561   15.9642 O   0  0  0  0  0  0  0  0  0  0  0  0
  -19.6965   -2.5618   17.7214 O   0  0  0  0  0  0  0  0  0  0  0  0
  -19.3565    1.1977   16.0057 C   0  0  0  0  0  0  0  0  0  0  0  0
  -19.0333    0.0634   15.2629 C   0  0  0  0  0  0  0  0  0  0  0  0
  -18.4691    1.3685   13.3670 C   0  0  0  0  0  0  0  0  0  0  0  0
  -19.2290    2.5197   15.3735 C   0  0  0  0  0  0  0  0  0  0  0  0
  -18.7547    2.5310   13.9749 C   0  0  0  0  0  0  0  0  0  0  0  0
  -19.7948    1.0765   17.3264 C   0  0  0  0  0  0  0  0  0  0  0  0
  -19.1474   -1.2024   15.8384 C   0  0  0  0  0  0  0  0  0  0  0  0
  -19.5845   -1.3279   17.1573 C   0  0  0  0  0  0  0  0  0  0  0  0
  -19.9075   -0.1908   17.8994 C   0  0  0  0  0  0  0  0  0  0  0  0
  -19.4799   -3.3258   17.2240 H   0  0  0  0  0  0  0  0  0  0  0  0
  -15.6553   -0.5771    9.8883 O   0  0  0  0  0  0  0  0  0  0  0  0
  -18.0005    1.3178   11.9677 C   0  0  0  0  0  0  0  0  0  0  0  0
  -17.0376    0.3816   11.5825 C   0  0  0  0  0  0  0  0  0  0  0  0
  -18.5180    2.2070   11.0222 C   0  0  0  0  0  0  0  0  0  0  0  0
  -16.5950    0.3347   10.2605 C   0  0  0  0  0  0  0  0  0  0  0  0
  -18.0754    2.1602    9.7003 C   0  0  0  0  0  0  0  0  0  0  0  0
  -17.1141    1.2240    9.3193 C   0  0  0  0  0  0  0  0  0  0  0  0
  -15.3063   -1.1746   10.5200 H   0  0  0  0  0  0  0  0  0  0  0  0
  1  5  1  0  0  0
  1  6  1  0  0  0
  2  7  2  0  0  0
  3 11  1  0  0  0
 14 18  1  0  0  0
  4  5  2  0  0  0
  4  7  1  0  0  0
  4  9  1  0  0  0
  5 10  1  0  0  0
  6 15  1  0  0  0
  6  8  2  0  0  0
 15 16  1  0  0  0
 15 17  2  0  0  0
  7  8  1  0  0  0
  9 12  2  0  0  0
 10 11  2  0  0  0
 16 18  2  0  0  0
 11 12  1  0  0  0
 17 19  1  0  0  0
 18 20  1  0  0  0
 19 20  2  0  0  0
  3 13  1  0  0  0
 14 21  1  0  0  0
M  END
> <PUBCHEM_COMPOUND_CID>
5391140

> <PUBCHEM_CONFORMER_RMSD>
0.6

> <PUBCHEM_CONFORMER_DIVERSEORDER>
1
3
5
2
4
6

> <PUBCHEM_MMFF94_PARTIAL_CHARGES>
29
1 -0.16
10 -0.14
11 -0.15
12 -0.15
13 -0.15
14 0.08
15 -0.15
16 -0.15
17 0.08
18 -0.15
19 -0.15
2 -0.57
20 0.15
21 0.15
22 0.15
23 0.15
24 0.15
25 0.15
26 0.15
27 0.15
28 0.45
29 0.45
3 -0.53
4 -0.53
5 0.09
6 0.08
7 0.05
8 0.03
9 0.47

> <PUBCHEM_EFFECTIVE_ROTOR_COUNT>
1

> <PUBCHEM_PHARMACOPHORE_FEATURES>
7
1 1 acceptor
1 2 acceptor
1 3 donor
1 4 donor
6 1 5 6 7 9 10 rings
6 5 6 11 12 14 16 rings
6 8 13 15 17 18 19 rings

> <PUBCHEM_HEAVY_ATOM_COUNT>
19

> <PUBCHEM_ATOM_DEF_STEREO_COUNT>
0

> <PUBCHEM_ATOM_UDEF_STEREO_COUNT>
0

> <PUBCHEM_BOND_DEF_STEREO_COUNT>
0

> <PUBCHEM_BOND_UDEF_STEREO_COUNT>
0

> <PUBCHEM_ISOTOPIC_ATOM_COUNT>
0

> <PUBCHEM_COMPONENT_COUNT>
1

> <PUBCHEM_CACTVS_TAUTO_COUNT>
15

> <PUBCHEM_CONFORMER_ID>
0052432400000001

> <PUBCHEM_MMFF94_ENERGY>
56.24

> <PUBCHEM_FEATURE_SELFOVERLAP>
35.55

> <PUBCHEM_SHAPE_FINGERPRINT>
10411042 1 17764023971247538183
10616163 171 18340206396663569878
12107183 9 18120083984162219642
12173636 292 18341324591097994070
12236239 1 18186516605170833426
122479 349 18335706030808521499
12251169 10 18408037395057954254
12390115 104 18129681720129959673
12403814 3 17968090915548062085
12788726 201 18047462602246754227
13167823 11 18335136505571419298
13583140 156 17313381210724963987
14739800 52 18126830811355286288
14767858 380 18271506643171306565
14790565 3 18341057320016500809
15042514 8 18267306611463768499
15196674 1 18410292501584812401
15442244 35 18336541634551002090
15669948 3 18270956963670044014
17492 89 18336547209224198594
17834072 32 18411703145123510001
18222031 100 12035748530083685265
19050596 39 18261105309937007370
204376 136 18340491062979608451
20510252 161 18273219690212391635
20715895 44 18048872992650854101
21267235 1 18408892845195723258
21524375 3 18341046324725623235
23227448 37 18340206396367683813
23366157 5 18118408332372998023
23402539 116 18201146681199345037
23402655 69 18408324410869394556
23503953 91 18336816542490854536
23559900 14 18058733490390738958
245318 6 16449267575194642308
2838139 119 17315329468305257485
335352 9 18338797789382443494
350125 39 18412829118746338905
3545911 37 18412826893699682034
38570 142 17388288803696207004
4214541 1 18410572885914142960
474 4 17532093967931437564
474229 33 18412263939641587203
5104073 3 18333729135014281200
633830 44 18410573946592139662
69090 78 18409444769577536707
7064713 232 18339920420323619672
77779 3 18408604768679828562
7832392 63 18409447012135982196
9709674 26 18342462542894507542

> <PUBCHEM_SHAPE_MULTIPOLES>
367.53
9.94
2.57
0.7
3.54
0.25
-0.01
-4.84
-0.47
-1.3
0.26
0.25
0
-1.12

> <PUBCHEM_SHAPE_SELFOVERLAP>
821.245

> <PUBCHEM_SHAPE_VOLUME>
194.1

> <PUBCHEM_COORDINATE_TYPE>
2
5
10

> <minimizedAffinity>
-8.54826

> <CNNscore>
0.6925036907

> <CNNaffinity>
4.9483008385

> <CNN_VS>
3.4267165661

> <CNNaffinity_variance>
0.2664996088

$$$$
5391140


 21 23  0  0  0  0  0  0  0  0999 V2000
  -18.2049   -0.1789   13.8543 O   0  0  0  0  0  0  0  0  0  0  0  0
  -20.3011   -2.5759   11.3127 O   0  0  0  0  0  0  0  0  0  0  0  0
  -15.3675    1.3373   10.3628 O   0  0  0  0  0  0  0  0  0  0  0  0
  -18.5401   -1.0270   11.6029 C   0  0  0  0  0  0  0  0  0  0  0  0
  -17.8668   -0.2281   12.5256 C   0  0  0  0  0  0  0  0  0  0  0  0
  -19.2573   -0.9653   14.2975 C   0  0  0  0  0  0  0  0  0  0  0  0
  -19.6633   -1.8553   12.0678 C   0  0  0  0  0  0  0  0  0  0  0  0
  -19.9853   -1.7695   13.5066 C   0  0  0  0  0  0  0  0  0  0  0  0
  -18.1526   -1.0366   10.2610 C   0  0  0  0  0  0  0  0  0  0  0  0
  -16.7994    0.5682   12.1102 C   0  0  0  0  0  0  0  0  0  0  0  0
  -16.4089    0.5613   10.7709 C   0  0  0  0  0  0  0  0  0  0  0  0
  -17.0843   -0.2394    9.8485 C   0  0  0  0  0  0  0  0  0  0  0  0
  -14.9135    1.8751   10.9813 H   0  0  0  0  0  0  0  0  0  0  0  0
  -20.6365   -2.8953   18.5610 O   0  0  0  0  0  0  0  0  0  0  0  0
  -19.5392   -0.8321   15.7409 C   0  0  0  0  0  0  0  0  0  0  0  0
  -19.9590   -1.9408   16.4801 C   0  0  0  0  0  0  0  0  0  0  0  0
  -19.3880    0.4044   16.3737 C   0  0  0  0  0  0  0  0  0  0  0  0
  -20.2257   -1.8140   17.8434 C   0  0  0  0  0  0  0  0  0  0  0  0
  -19.6547    0.5313   17.7368 C   0  0  0  0  0  0  0  0  0  0  0  0
  -20.0734   -0.5779   18.4718 C   0  0  0  0  0  0  0  0  0  0  0  0
  -20.7390   -3.7258   18.1395 H   0  0  0  0  0  0  0  0  0  0  0  0
  1  5  1  0  0  0
  1  6  1  0  0  0
  2  7  2  0  0  0
  3 11  1  0  0  0
 14 18  1  0  0  0
  4  5  2  0  0  0
  4  7  1  0  0  0
  4  9  1  0  0  0
  5 10  1  0  0  0
  6 15  1  0  0  0
  6  8  2  0  0  0
 15 16  1  0  0  0
 15 17  2  0  0  0
  7  8  1  0  0  0
  9 12  2  0  0  0
 10 11  2  0  0  0
 16 18  2  0  0  0
 11 12  1  0  0  0
 17 19  1  0  0  0
 18 20  1  0  0  0
 19 20  2  0  0  0
  3 13  1  0  0  0
 14 21  1  0  0  0
M  END
> <PUBCHEM_COMPOUND_CID>
5391140

> <PUBCHEM_CONFORMER_RMSD>
0.6

> <PUBCHEM_CONFORMER_DIVERSEORDER>
1
3
5
2
4
6

> <PUBCHEM_MMFF94_PARTIAL_CHARGES>
29
1 -0.16
10 -0.14
11 -0.15
12 -0.15
13 -0.15
14 0.08
15 -0.15
16 -0.15
17 0.08
18 -0.15
19 -0.15
2 -0.57
20 0.15
21 0.15
22 0.15
23 0.15
24 0.15
25 0.15
26 0.15
27 0.15
28 0.45
29 0.45
3 -0.53
4 -0.53
5 0.09
6 0.08
7 0.05
8 0.03
9 0.47

> <PUBCHEM_EFFECTIVE_ROTOR_COUNT>
1

> <PUBCHEM_PHARMACOPHORE_FEATURES>
7
1 1 acceptor
1 2 acceptor
1 3 donor
1 4 donor
6 1 5 6 7 9 10 rings
6 5 6 11 12 14 16 rings
6 8 13 15 17 18 19 rings

> <PUBCHEM_HEAVY_ATOM_COUNT>
19

> <PUBCHEM_ATOM_DEF_STEREO_COUNT>
0

> <PUBCHEM_ATOM_UDEF_STEREO_COUNT>
0

> <PUBCHEM_BOND_DEF_STEREO_COUNT>
0

> <PUBCHEM_BOND_UDEF_STEREO_COUNT>
0

> <PUBCHEM_ISOTOPIC_ATOM_COUNT>
0

> <PUBCHEM_COMPONENT_COUNT>
1

> <PUBCHEM_CACTVS_TAUTO_COUNT>
15

> <PUBCHEM_CONFORMER_ID>
0052432400000001

> <PUBCHEM_MMFF94_ENERGY>
56.24

> <PUBCHEM_FEATURE_SELFOVERLAP>
35.55

> <PUBCHEM_SHAPE_FINGERPRINT>
10411042 1 17764023971247538183
10616163 171 18340206396663569878
12107183 9 18120083984162219642
12173636 292 18341324591097994070
12236239 1 18186516605170833426
122479 349 18335706030808521499
12251169 10 18408037395057954254
12390115 104 18129681720129959673
12403814 3 17968090915548062085
12788726 201 18047462602246754227
13167823 11 18335136505571419298
13583140 156 17313381210724963987
14739800 52 18126830811355286288
14767858 380 18271506643171306565
14790565 3 18341057320016500809
15042514 8 18267306611463768499
15196674 1 18410292501584812401
15442244 35 18336541634551002090
15669948 3 18270956963670044014
17492 89 18336547209224198594
17834072 32 18411703145123510001
18222031 100 12035748530083685265
19050596 39 18261105309937007370
204376 136 18340491062979608451
20510252 161 18273219690212391635
20715895 44 18048872992650854101
21267235 1 18408892845195723258
21524375 3 18341046324725623235
23227448 37 18340206396367683813
23366157 5 18118408332372998023
23402539 116 18201146681199345037
23402655 69 18408324410869394556
23503953 91 18336816542490854536
23559900 14 18058733490390738958
245318 6 16449267575194642308
2838139 119 17315329468305257485
335352 9 18338797789382443494
350125 39 18412829118746338905
3545911 37 18412826893699682034
38570 142 17388288803696207004
4214541 1 18410572885914142960
474 4 17532093967931437564
474229 33 18412263939641587203
5104073 3 18333729135014281200
633830 44 18410573946592139662
69090 78 18409444769577536707
7064713 232 18339920420323619672
77779 3 18408604768679828562
7832392 63 18409447012135982196
9709674 26 18342462542894507542

> <PUBCHEM_SHAPE_MULTIPOLES>
367.53
9.94
2.57
0.7
3.54
0.25
-0.01
-4.84
-0.47
-1.3
0.26
0.25
0
-1.12

> <PUBCHEM_SHAPE_SELFOVERLAP>
821.245

> <PUBCHEM_SHAPE_VOLUME>
194.1

> <PUBCHEM_COORDINATE_TYPE>
2
5
10

> <minimizedAffinity>
-7.70233

> <CNNscore>
0.5921661854

> <CNNaffinity>
5.1071128845

> <CNN_VS>
3.0242595673

> <CNNaffinity_variance>
0.0613341033

$$$$
5391140


 21 23  0  0  0  0  0  0  0  0999 V2000
  -18.8637   -1.3494   14.7287 O   0  0  0  0  0  0  0  0  0  0  0  0
  -19.2871    2.6085   15.5974 O   0  0  0  0  0  0  0  0  0  0  0  0
  -20.1094   -2.6273   19.1281 O   0  0  0  0  0  0  0  0  0  0  0  0
  -19.4120    0.3726   16.3518 C   0  0  0  0  0  0  0  0  0  0  0  0
  -19.2499   -0.9629   15.9870 C   0  0  0  0  0  0  0  0  0  0  0  0
  -18.6165   -0.3663   13.7827 C   0  0  0  0  0  0  0  0  0  0  0  0
  -19.1600    1.4178   15.3480 C   0  0  0  0  0  0  0  0  0  0  0  0
  -18.7435    0.9507   14.0103 C   0  0  0  0  0  0  0  0  0  0  0  0
  -19.8084    0.7078   17.6485 C   0  0  0  0  0  0  0  0  0  0  0  0
  -19.4844   -1.9736   16.9197 C   0  0  0  0  0  0  0  0  0  0  0  0
  -19.8801   -1.6430   18.2160 C   0  0  0  0  0  0  0  0  0  0  0  0
  -20.0418   -0.3052   18.5793 C   0  0  0  0  0  0  0  0  0  0  0  0
  -20.0011   -3.5257   18.8851 H   0  0  0  0  0  0  0  0  0  0  0  0
  -15.6683   -0.3010    9.8958 O   0  0  0  0  0  0  0  0  0  0  0  0
  -18.2128   -0.8916   12.4631 C   0  0  0  0  0  0  0  0  0  0  0  0
  -17.1162   -0.3426   11.7937 C   0  0  0  0  0  0  0  0  0  0  0  0
  -18.9267   -1.9403   11.8775 C   0  0  0  0  0  0  0  0  0  0  0  0
  -16.7358   -0.8390   10.5468 C   0  0  0  0  0  0  0  0  0  0  0  0
  -18.5464   -2.4367   10.6307 C   0  0  0  0  0  0  0  0  0  0  0  0
  -17.4509   -1.8863    9.9654 C   0  0  0  0  0  0  0  0  0  0  0  0
  -15.1876    0.4024   10.2858 H   0  0  0  0  0  0  0  0  0  0  0  0
  1  5  1  0  0  0
  1  6  1  0  0  0
  2  7  2  0  0  0
  3 11  1  0  0  0
 14 18  1  0  0  0
  4  5  2  0  0  0
  4  7  1  0  0  0
  4  9  1  0  0  0
  5 10  1  0  0  0
  6 15  1  0  0  0
  6  8  2  0  0  0
 15 16  1  0  0  0
 15 17  2  0  0  0
  7  8  1  0  0  0
  9 12  2  0  0  0
 10 11  2  0  0  0
 16 18  2  0  0  0
 11 12  1  0  0  0
 17 19  1  0  0  0
 18 20  1  0  0  0
 19 20  2  0  0  0
  3 13  1  0  0  0
 14 21  1  0  0  0
M  END
> <PUBCHEM_COMPOUND_CID>
5391140

> <PUBCHEM_CONFORMER_RMSD>
0.6

> <PUBCHEM_CONFORMER_DIVERSEORDER>
1
3
5
2
4
6

> <PUBCHEM_MMFF94_PARTIAL_CHARGES>
29
1 -0.16
10 -0.14
11 -0.15
12 -0.15
13 -0.15
14 0.08
15 -0.15
16 -0.15
17 0.08
18 -0.15
19 -0.15
2 -0.57
20 0.15
21 0.15
22 0.15
23 0.15
24 0.15
25 0.15
26 0.15
27 0.15
28 0.45
29 0.45
3 -0.53
4 -0.53
5 0.09
6 0.08
7 0.05
8 0.03
9 0.47

> <PUBCHEM_EFFECTIVE_ROTOR_COUNT>
1

> <PUBCHEM_PHARMACOPHORE_FEATURES>
7
1 1 acceptor
1 2 acceptor
1 3 donor
1 4 donor
6 1 5 6 7 9 10 rings
6 5 6 11 12 14 16 rings
6 8 13 15 17 18 19 rings

> <PUBCHEM_HEAVY_ATOM_COUNT>
19

> <PUBCHEM_ATOM_DEF_STEREO_COUNT>
0

> <PUBCHEM_ATOM_UDEF_STEREO_COUNT>
0

> <PUBCHEM_BOND_DEF_STEREO_COUNT>
0

> <PUBCHEM_BOND_UDEF_STEREO_COUNT>
0

> <PUBCHEM_ISOTOPIC_ATOM_COUNT>
0

> <PUBCHEM_COMPONENT_COUNT>
1

> <PUBCHEM_CACTVS_TAUTO_COUNT>
15

> <PUBCHEM_CONFORMER_ID>
0052432400000001

> <PUBCHEM_MMFF94_ENERGY>
56.24

> <PUBCHEM_FEATURE_SELFOVERLAP>
35.55

> <PUBCHEM_SHAPE_FINGERPRINT>
10411042 1 17764023971247538183
10616163 171 18340206396663569878
12107183 9 18120083984162219642
12173636 292 18341324591097994070
12236239 1 18186516605170833426
122479 349 18335706030808521499
12251169 10 18408037395057954254
12390115 104 18129681720129959673
12403814 3 17968090915548062085
12788726 201 18047462602246754227
13167823 11 18335136505571419298
13583140 156 17313381210724963987
14739800 52 18126830811355286288
14767858 380 18271506643171306565
14790565 3 18341057320016500809
15042514 8 18267306611463768499
15196674 1 18410292501584812401
15442244 35 18336541634551002090
15669948 3 18270956963670044014
17492 89 18336547209224198594
17834072 32 18411703145123510001
18222031 100 12035748530083685265
19050596 39 18261105309937007370
204376 136 18340491062979608451
20510252 161 18273219690212391635
20715895 44 18048872992650854101
21267235 1 18408892845195723258
21524375 3 18341046324725623235
23227448 37 18340206396367683813
23366157 5 18118408332372998023
23402539 116 18201146681199345037
23402655 69 18408324410869394556
23503953 91 18336816542490854536
23559900 14 18058733490390738958
245318 6 16449267575194642308
2838139 119 17315329468305257485
335352 9 18338797789382443494
350125 39 18412829118746338905
3545911 37 18412826893699682034
38570 142 17388288803696207004
4214541 1 18410572885914142960
474 4 17532093967931437564
474229 33 18412263939641587203
5104073 3 18333729135014281200
633830 44 18410573946592139662
69090 78 18409444769577536707
7064713 232 18339920420323619672
77779 3 18408604768679828562
7832392 63 18409447012135982196
9709674 26 18342462542894507542

> <PUBCHEM_SHAPE_MULTIPOLES>
367.53
9.94
2.57
0.7
3.54
0.25
-0.01
-4.84
-0.47
-1.3
0.26
0.25
0
-1.12

> <PUBCHEM_SHAPE_SELFOVERLAP>
821.245

> <PUBCHEM_SHAPE_VOLUME>
194.1

> <PUBCHEM_COORDINATE_TYPE>
2
5
10

> <minimizedAffinity>
-7.88759

> <CNNscore>
0.5716459751

> <CNNaffinity>
5.0571508408

> <CNN_VS>
2.8908998966

> <CNNaffinity_variance>
0.1035259217

$$$$
5391140


 21 23  0  0  0  0  0  0  0  0999 V2000
  -22.8954   -2.6876   12.0329 O   0  0  0  0  0  0  0  0  0  0  0  0
  -26.1780   -4.9102   11.0926 O   0  0  0  0  0  0  0  0  0  0  0  0
  -25.5578    1.0566   13.2298 O   0  0  0  0  0  0  0  0  0  0  0  0
  -25.3128   -2.8487   11.8579 C   0  0  0  0  0  0  0  0  0  0  0  0
  -24.1488   -2.1454   12.1634 C   0  0  0  0  0  0  0  0  0  0  0  0
  -22.7842   -3.9895   11.5689 C   0  0  0  0  0  0  0  0  0  0  0  0
  -25.1990   -4.2333   11.3747 C   0  0  0  0  0  0  0  0  0  0  0  0
  -23.8288   -4.7695   11.2483 C   0  0  0  0  0  0  0  0  0  0  0  0
  -26.5635   -2.2458   12.0110 C   0  0  0  0  0  0  0  0  0  0  0  0
  -24.2292   -0.8315   12.6254 C   0  0  0  0  0  0  0  0  0  0  0  0
  -25.4764   -0.2255   12.7794 C   0  0  0  0  0  0  0  0  0  0  0  0
  -26.6408   -0.9313   12.4729 C   0  0  0  0  0  0  0  0  0  0  0  0
  -24.7766    1.5313   13.4358 H   0  0  0  0  0  0  0  0  0  0  0  0
  -18.1058   -3.2898   10.3742 O   0  0  0  0  0  0  0  0  0  0  0  0
  -21.3930   -4.4748   11.4716 C   0  0  0  0  0  0  0  0  0  0  0  0
  -20.3923   -3.6426   10.9636 C   0  0  0  0  0  0  0  0  0  0  0  0
  -21.0713   -5.7696   11.8868 C   0  0  0  0  0  0  0  0  0  0  0  0
  -19.0785   -4.1020   10.8714 C   0  0  0  0  0  0  0  0  0  0  0  0
  -19.7576   -6.2290   11.7946 C   0  0  0  0  0  0  0  0  0  0  0  0
  -18.7611   -5.3952   11.2871 C   0  0  0  0  0  0  0  0  0  0  0  0
  -18.3183   -2.4211   10.0948 H   0  0  0  0  0  0  0  0  0  0  0  0
  1  5  1  0  0  0
  1  6  1  0  0  0
  2  7  2  0  0  0
  3 11  1  0  0  0
 14 18  1  0  0  0
  4  5  2  0  0  0
  4  7  1  0  0  0
  4  9  1  0  0  0
  5 10  1  0  0  0
  6 15  1  0  0  0
  6  8  2  0  0  0
 15 16  1  0  0  0
 15 17  2  0  0  0
  7  8  1  0  0  0
  9 12  2  0  0  0
 10 11  2  0  0  0
 16 18  2  0  0  0
 11 12  1  0  0  0
 17 19  1  0  0  0
 18 20  1  0  0  0
 19 20  2  0  0  0
  3 13  1  0  0  0
 14 21  1  0  0  0
M  END
> <PUBCHEM_COMPOUND_CID>
5391140

> <PUBCHEM_CONFORMER_RMSD>
0.6

> <PUBCHEM_CONFORMER_DIVERSEORDER>
1
3
5
2
4
6

> <PUBCHEM_MMFF94_PARTIAL_CHARGES>
29
1 -0.16
10 -0.14
11 -0.15
12 -0.15
13 -0.15
14 0.08
15 -0.15
16 -0.15
17 0.08
18 -0.15
19 -0.15
2 -0.57
20 0.15
21 0.15
22 0.15
23 0.15
24 0.15
25 0.15
26 0.15
27 0.15
28 0.45
29 0.45
3 -0.53
4 -0.53
5 0.09
6 0.08
7 0.05
8 0.03
9 0.47

> <PUBCHEM_EFFECTIVE_ROTOR_COUNT>
1

> <PUBCHEM_PHARMACOPHORE_FEATURES>
7
1 1 acceptor
1 2 acceptor
1 3 donor
1 4 donor
6 1 5 6 7 9 10 rings
6 5 6 11 12 14 16 rings
6 8 13 15 17 18 19 rings

> <PUBCHEM_HEAVY_ATOM_COUNT>
19

> <PUBCHEM_ATOM_DEF_STEREO_COUNT>
0

> <PUBCHEM_ATOM_UDEF_STEREO_COUNT>
0

> <PUBCHEM_BOND_DEF_STEREO_COUNT>
0

> <PUBCHEM_BOND_UDEF_STEREO_COUNT>
0

> <PUBCHEM_ISOTOPIC_ATOM_COUNT>
0

> <PUBCHEM_COMPONENT_COUNT>
1

> <PUBCHEM_CACTVS_TAUTO_COUNT>
15

> <PUBCHEM_CONFORMER_ID>
0052432400000001

> <PUBCHEM_MMFF94_ENERGY>
56.24

> <PUBCHEM_FEATURE_SELFOVERLAP>
35.55

> <PUBCHEM_SHAPE_FINGERPRINT>
10411042 1 17764023971247538183
10616163 171 18340206396663569878
12107183 9 18120083984162219642
12173636 292 18341324591097994070
12236239 1 18186516605170833426
122479 349 18335706030808521499
12251169 10 18408037395057954254
12390115 104 18129681720129959673
12403814 3 17968090915548062085
12788726 201 18047462602246754227
13167823 11 18335136505571419298
13583140 156 17313381210724963987
14739800 52 18126830811355286288
14767858 380 18271506643171306565
14790565 3 18341057320016500809
15042514 8 18267306611463768499
15196674 1 18410292501584812401
15442244 35 18336541634551002090
15669948 3 18270956963670044014
17492 89 18336547209224198594
17834072 32 18411703145123510001
18222031 100 12035748530083685265
19050596 39 18261105309937007370
204376 136 18340491062979608451
20510252 161 18273219690212391635
20715895 44 18048872992650854101
21267235 1 18408892845195723258
21524375 3 18341046324725623235
23227448 37 18340206396367683813
23366157 5 18118408332372998023
23402539 116 18201146681199345037
23402655 69 18408324410869394556
23503953 91 18336816542490854536
23559900 14 18058733490390738958
245318 6 16449267575194642308
2838139 119 17315329468305257485
335352 9 18338797789382443494
350125 39 18412829118746338905
3545911 37 18412826893699682034
38570 142 17388288803696207004
4214541 1 18410572885914142960
474 4 17532093967931437564
474229 33 18412263939641587203
5104073 3 18333729135014281200
633830 44 18410573946592139662
69090 78 18409444769577536707
7064713 232 18339920420323619672
77779 3 18408604768679828562
7832392 63 18409447012135982196
9709674 26 18342462542894507542

> <PUBCHEM_SHAPE_MULTIPOLES>
367.53
9.94
2.57
0.7
3.54
0.25
-0.01
-4.84
-0.47
-1.3
0.26
0.25
0
-1.12

> <PUBCHEM_SHAPE_SELFOVERLAP>
821.245

> <PUBCHEM_SHAPE_VOLUME>
194.1

> <PUBCHEM_COORDINATE_TYPE>
2
5
10

> <minimizedAffinity>
-5.48787

> <CNNscore>
0.4732030928

> <CNNaffinity>
4.3594551086

> <CNN_VS>
2.0629076958

> <CNNaffinity_variance>
0.0349572673

$$$$
5391140


 21 23  0  0  0  0  0  0  0  0999 V2000
  -20.5546   -2.8080   14.1942 O   0  0  0  0  0  0  0  0  0  0  0  0
  -18.2131   -1.3458   11.1977 O   0  0  0  0  0  0  0  0  0  0  0  0
  -22.4953   -6.0577   11.3283 O   0  0  0  0  0  0  0  0  0  0  0  0
  -19.8535   -2.9080   11.8706 C   0  0  0  0  0  0  0  0  0  0  0  0
  -20.6242   -3.3603   12.9404 C   0  0  0  0  0  0  0  0  0  0  0  0
  -19.6848   -1.7483   14.4016 C   0  0  0  0  0  0  0  0  0  0  0  0
  -18.9227   -1.7903   12.0894 C   0  0  0  0  0  0  0  0  0  0  0  0
  -18.8874   -1.2285   13.4548 C   0  0  0  0  0  0  0  0  0  0  0  0
  -19.9653   -3.5095   10.6149 C   0  0  0  0  0  0  0  0  0  0  0  0
  -21.5133   -4.4201   12.7599 C   0  0  0  0  0  0  0  0  0  0  0  0
  -21.6282   -5.0235   11.5073 C   0  0  0  0  0  0  0  0  0  0  0  0
  -20.8558   -4.5690   10.4374 C   0  0  0  0  0  0  0  0  0  0  0  0
  -23.0143   -6.3634   12.0460 H   0  0  0  0  0  0  0  0  0  0  0  0
  -20.0814   -2.4696   19.2106 O   0  0  0  0  0  0  0  0  0  0  0  0
  -19.6854   -1.2338   15.7857 C   0  0  0  0  0  0  0  0  0  0  0  0
  -19.8843   -2.1055   16.8593 C   0  0  0  0  0  0  0  0  0  0  0  0
  -19.4876    0.1280   16.0277 C   0  0  0  0  0  0  0  0  0  0  0  0
  -19.8854   -1.6186   18.1665 C   0  0  0  0  0  0  0  0  0  0  0  0
  -19.4887    0.6149   17.3347 C   0  0  0  0  0  0  0  0  0  0  0  0
  -19.6873   -0.2583   18.4042 C   0  0  0  0  0  0  0  0  0  0  0  0
  -20.2145   -3.3834   19.0516 H   0  0  0  0  0  0  0  0  0  0  0  0
  1  5  1  0  0  0
  1  6  1  0  0  0
  2  7  2  0  0  0
  3 11  1  0  0  0
 14 18  1  0  0  0
  4  5  2  0  0  0
  4  7  1  0  0  0
  4  9  1  0  0  0
  5 10  1  0  0  0
  6 15  1  0  0  0
  6  8  2  0  0  0
 15 16  1  0  0  0
 15 17  2  0  0  0
  7  8  1  0  0  0
  9 12  2  0  0  0
 10 11  2  0  0  0
 16 18  2  0  0  0
 11 12  1  0  0  0
 17 19  1  0  0  0
 18 20  1  0  0  0
 19 20  2  0  0  0
  3 13  1  0  0  0
 14 21  1  0  0  0
M  END
> <PUBCHEM_COMPOUND_CID>
5391140

> <PUBCHEM_CONFORMER_RMSD>
0.6

> <PUBCHEM_CONFORMER_DIVERSEORDER>
1
3
5
2
4
6

> <PUBCHEM_MMFF94_PARTIAL_CHARGES>
29
1 -0.16
10 -0.14
11 -0.15
12 -0.15
13 -0.15
14 0.08
15 -0.15
16 -0.15
17 0.08
18 -0.15
19 -0.15
2 -0.57
20 0.15
21 0.15
22 0.15
23 0.15
24 0.15
25 0.15
26 0.15
27 0.15
28 0.45
29 0.45
3 -0.53
4 -0.53
5 0.09
6 0.08
7 0.05
8 0.03
9 0.47

> <PUBCHEM_EFFECTIVE_ROTOR_COUNT>
1

> <PUBCHEM_PHARMACOPHORE_FEATURES>
7
1 1 acceptor
1 2 acceptor
1 3 donor
1 4 donor
6 1 5 6 7 9 10 rings
6 5 6 11 12 14 16 rings
6 8 13 15 17 18 19 rings

> <PUBCHEM_HEAVY_ATOM_COUNT>
19

> <PUBCHEM_ATOM_DEF_STEREO_COUNT>
0

> <PUBCHEM_ATOM_UDEF_STEREO_COUNT>
0

> <PUBCHEM_BOND_DEF_STEREO_COUNT>
0

> <PUBCHEM_BOND_UDEF_STEREO_COUNT>
0

> <PUBCHEM_ISOTOPIC_ATOM_COUNT>
0

> <PUBCHEM_COMPONENT_COUNT>
1

> <PUBCHEM_CACTVS_TAUTO_COUNT>
15

> <PUBCHEM_CONFORMER_ID>
0052432400000001

> <PUBCHEM_MMFF94_ENERGY>
56.24

> <PUBCHEM_FEATURE_SELFOVERLAP>
35.55

> <PUBCHEM_SHAPE_FINGERPRINT>
10411042 1 17764023971247538183
10616163 171 18340206396663569878
12107183 9 18120083984162219642
12173636 292 18341324591097994070
12236239 1 18186516605170833426
122479 349 18335706030808521499
12251169 10 18408037395057954254
12390115 104 18129681720129959673
12403814 3 17968090915548062085
12788726 201 18047462602246754227
13167823 11 18335136505571419298
13583140 156 17313381210724963987
14739800 52 18126830811355286288
14767858 380 18271506643171306565
14790565 3 18341057320016500809
15042514 8 18267306611463768499
15196674 1 18410292501584812401
15442244 35 18336541634551002090
15669948 3 18270956963670044014
17492 89 18336547209224198594
17834072 32 18411703145123510001
18222031 100 12035748530083685265
19050596 39 18261105309937007370
204376 136 18340491062979608451
20510252 161 18273219690212391635
20715895 44 18048872992650854101
21267235 1 18408892845195723258
21524375 3 18341046324725623235
23227448 37 18340206396367683813
23366157 5 18118408332372998023
23402539 116 18201146681199345037
23402655 69 18408324410869394556
23503953 91 18336816542490854536
23559900 14 18058733490390738958
245318 6 16449267575194642308
2838139 119 17315329468305257485
335352 9 18338797789382443494
350125 39 18412829118746338905
3545911 37 18412826893699682034
38570 142 17388288803696207004
4214541 1 18410572885914142960
474 4 17532093967931437564
474229 33 18412263939641587203
5104073 3 18333729135014281200
633830 44 18410573946592139662
69090 78 18409444769577536707
7064713 232 18339920420323619672
77779 3 18408604768679828562
7832392 63 18409447012135982196
9709674 26 18342462542894507542

> <PUBCHEM_SHAPE_MULTIPOLES>
367.53
9.94
2.57
0.7
3.54
0.25
-0.01
-4.84
-0.47
-1.3
0.26
0.25
0
-1.12

> <PUBCHEM_SHAPE_SELFOVERLAP>
821.245

> <PUBCHEM_SHAPE_VOLUME>
194.1

> <PUBCHEM_COORDINATE_TYPE>
2
5
10

> <minimizedAffinity>
-7.41707

> <CNNscore>
0.4696695805

> <CNNaffinity>
4.8309307098

> <CNN_VS>
2.2689411640

> <CNNaffinity_variance>
0.1310059577

$$$$
5391140


 21 23  0  0  0  0  0  0  0  0999 V2000
  -20.3696   -2.4017   14.7603 O   0  0  0  0  0  0  0  0  0  0  0  0
  -18.4292    1.0476   13.7927 O   0  0  0  0  0  0  0  0  0  0  0  0
  -20.7998   -1.0906   19.3030 O   0  0  0  0  0  0  0  0  0  0  0  0
  -19.4701   -0.2581   15.4648 C   0  0  0  0  0  0  0  0  0  0  0  0
  -20.1294   -1.4579   15.7266 C   0  0  0  0  0  0  0  0  0  0  0  0
  -19.9289   -2.1523   13.4696 C   0  0  0  0  0  0  0  0  0  0  0  0
  -19.0098    0.0141   14.0945 C   0  0  0  0  0  0  0  0  0  0  0  0
  -19.2893   -1.0339   13.0922 C   0  0  0  0  0  0  0  0  0  0  0  0
  -19.2538    0.6674   16.4884 C   0  0  0  0  0  0  0  0  0  0  0  0
  -20.5778   -1.7397   17.0173 C   0  0  0  0  0  0  0  0  0  0  0  0
  -20.3635   -0.8182   18.0426 C   0  0  0  0  0  0  0  0  0  0  0  0
  -19.7031    0.3826   17.7784 C   0  0  0  0  0  0  0  0  0  0  0  0
  -21.2433   -1.8965   19.4813 H   0  0  0  0  0  0  0  0  0  0  0  0
  -18.5488   -5.9308   10.7087 O   0  0  0  0  0  0  0  0  0  0  0  0
  -20.2436   -3.2293   12.5096 C   0  0  0  0  0  0  0  0  0  0  0  0
  -19.2354   -4.0839   12.0570 C   0  0  0  0  0  0  0  0  0  0  0  0
  -21.5520   -3.3978   12.0490 C   0  0  0  0  0  0  0  0  0  0  0  0
  -19.5334   -5.1007   11.1497 C   0  0  0  0  0  0  0  0  0  0  0  0
  -21.8500   -4.4144   11.1417 C   0  0  0  0  0  0  0  0  0  0  0  0
  -20.8409   -5.2660   10.6922 C   0  0  0  0  0  0  0  0  0  0  0  0
  -17.6705   -5.8203   11.0156 H   0  0  0  0  0  0  0  0  0  0  0  0
  1  5  1  0  0  0
  1  6  1  0  0  0
  2  7  2  0  0  0
  3 11  1  0  0  0
 14 18  1  0  0  0
  4  5  2  0  0  0
  4  7  1  0  0  0
  4  9  1  0  0  0
  5 10  1  0  0  0
  6 15  1  0  0  0
  6  8  2  0  0  0
 15 16  1  0  0  0
 15 17  2  0  0  0
  7  8  1  0  0  0
  9 12  2  0  0  0
 10 11  2  0  0  0
 16 18  2  0  0  0
 11 12  1  0  0  0
 17 19  1  0  0  0
 18 20  1  0  0  0
 19 20  2  0  0  0
  3 13  1  0  0  0
 14 21  1  0  0  0
M  END
> <PUBCHEM_COMPOUND_CID>
5391140

> <PUBCHEM_CONFORMER_RMSD>
0.6

> <PUBCHEM_CONFORMER_DIVERSEORDER>
1
3
5
2
4
6

> <PUBCHEM_MMFF94_PARTIAL_CHARGES>
29
1 -0.16
10 -0.14
11 -0.15
12 -0.15
13 -0.15
14 0.08
15 -0.15
16 -0.15
17 0.08
18 -0.15
19 -0.15
2 -0.57
20 0.15
21 0.15
22 0.15
23 0.15
24 0.15
25 0.15
26 0.15
27 0.15
28 0.45
29 0.45
3 -0.53
4 -0.53
5 0.09
6 0.08
7 0.05
8 0.03
9 0.47

> <PUBCHEM_EFFECTIVE_ROTOR_COUNT>
1

> <PUBCHEM_PHARMACOPHORE_FEATURES>
7
1 1 acceptor
1 2 acceptor
1 3 donor
1 4 donor
6 1 5 6 7 9 10 rings
6 5 6 11 12 14 16 rings
6 8 13 15 17 18 19 rings

> <PUBCHEM_HEAVY_ATOM_COUNT>
19

> <PUBCHEM_ATOM_DEF_STEREO_COUNT>
0

> <PUBCHEM_ATOM_UDEF_STEREO_COUNT>
0

> <PUBCHEM_BOND_DEF_STEREO_COUNT>
0

> <PUBCHEM_BOND_UDEF_STEREO_COUNT>
0

> <PUBCHEM_ISOTOPIC_ATOM_COUNT>
0

> <PUBCHEM_COMPONENT_COUNT>
1

> <PUBCHEM_CACTVS_TAUTO_COUNT>
15

> <PUBCHEM_CONFORMER_ID>
0052432400000001

> <PUBCHEM_MMFF94_ENERGY>
56.24

> <PUBCHEM_FEATURE_SELFOVERLAP>
35.55

> <PUBCHEM_SHAPE_FINGERPRINT>
10411042 1 17764023971247538183
10616163 171 18340206396663569878
12107183 9 18120083984162219642
12173636 292 18341324591097994070
12236239 1 18186516605170833426
122479 349 18335706030808521499
12251169 10 18408037395057954254
12390115 104 18129681720129959673
12403814 3 17968090915548062085
12788726 201 18047462602246754227
13167823 11 18335136505571419298
13583140 156 17313381210724963987
14739800 52 18126830811355286288
14767858 380 18271506643171306565
14790565 3 18341057320016500809
15042514 8 18267306611463768499
15196674 1 18410292501584812401
15442244 35 18336541634551002090
15669948 3 18270956963670044014
17492 89 18336547209224198594
17834072 32 18411703145123510001
18222031 100 12035748530083685265
19050596 39 18261105309937007370
204376 136 18340491062979608451
20510252 161 18273219690212391635
20715895 44 18048872992650854101
21267235 1 18408892845195723258
21524375 3 18341046324725623235
23227448 37 18340206396367683813
23366157 5 18118408332372998023
23402539 116 18201146681199345037
23402655 69 18408324410869394556
23503953 91 18336816542490854536
23559900 14 18058733490390738958
245318 6 16449267575194642308
2838139 119 17315329468305257485
335352 9 18338797789382443494
350125 39 18412829118746338905
3545911 37 18412826893699682034
38570 142 17388288803696207004
4214541 1 18410572885914142960
474 4 17532093967931437564
474229 33 18412263939641587203
5104073 3 18333729135014281200
633830 44 18410573946592139662
69090 78 18409444769577536707
7064713 232 18339920420323619672
77779 3 18408604768679828562
7832392 63 18409447012135982196
9709674 26 18342462542894507542

> <PUBCHEM_SHAPE_MULTIPOLES>
367.53
9.94
2.57
0.7
3.54
0.25
-0.01
-4.84
-0.47
-1.3
0.26
0.25
0
-1.12

> <PUBCHEM_SHAPE_SELFOVERLAP>
821.245

> <PUBCHEM_SHAPE_VOLUME>
194.1

> <PUBCHEM_COORDINATE_TYPE>
2
5
10

> <minimizedAffinity>
-7.45635

> <CNNscore>
0.4136736095

> <CNNaffinity>
4.6286554337

> <CNN_VS>
1.9147526026

> <CNNaffinity_variance>
0.3486819863

$$$$
5391140


 21 23  0  0  0  0  0  0  0  0999 V2000
  -22.6675   -2.7232   11.5569 O   0  0  0  0  0  0  0  0  0  0  0  0
  -24.3901   -6.3997   11.2174 O   0  0  0  0  0  0  0  0  0  0  0  0
  -18.3362   -4.4837   10.7319 O   0  0  0  0  0  0  0  0  0  0  0  0
  -22.4128   -5.1068   11.1643 C   0  0  0  0  0  0  0  0  0  0  0  0
  -21.8892   -3.8212   11.2912 C   0  0  0  0  0  0  0  0  0  0  0  0
  -24.0332   -2.9042   11.7137 C   0  0  0  0  0  0  0  0  0  0  0  0
  -23.8624   -5.3010   11.3204 C   0  0  0  0  0  0  0  0  0  0  0  0
  -24.6556   -4.0891   11.6088 C   0  0  0  0  0  0  0  0  0  0  0  0
  -21.5721   -6.1885   10.8920 C   0  0  0  0  0  0  0  0  0  0  0  0
  -20.5179   -3.6096   11.1458 C   0  0  0  0  0  0  0  0  0  0  0  0
  -19.6748   -4.6874   10.8741 C   0  0  0  0  0  0  0  0  0  0  0  0
  -20.2009   -5.9738   10.7475 C   0  0  0  0  0  0  0  0  0  0  0  0
  -17.9821   -3.6204   10.8168 H   0  0  0  0  0  0  0  0  0  0  0  0
  -26.6567   -0.0908   14.7148 O   0  0  0  0  0  0  0  0  0  0  0  0
  -24.7755   -1.6582   11.9911 C   0  0  0  0  0  0  0  0  0  0  0  0
  -25.3726   -1.4588   13.2384 C   0  0  0  0  0  0  0  0  0  0  0  0
  -24.8845   -0.6729   11.0064 C   0  0  0  0  0  0  0  0  0  0  0  0
  -26.0742   -0.2817   13.4994 C   0  0  0  0  0  0  0  0  0  0  0  0
  -25.5860    0.5041   11.2674 C   0  0  0  0  0  0  0  0  0  0  0  0
  -26.1807    0.6998   12.5139 C   0  0  0  0  0  0  0  0  0  0  0  0
  -26.5855   -0.7497   15.3771 H   0  0  0  0  0  0  0  0  0  0  0  0
  1  5  1  0  0  0
  1  6  1  0  0  0
  2  7  2  0  0  0
  3 11  1  0  0  0
 14 18  1  0  0  0
  4  5  2  0  0  0
  4  7  1  0  0  0
  4  9  1  0  0  0
  5 10  1  0  0  0
  6 15  1  0  0  0
  6  8  2  0  0  0
 15 16  1  0  0  0
 15 17  2  0  0  0
  7  8  1  0  0  0
  9 12  2  0  0  0
 10 11  2  0  0  0
 16 18  2  0  0  0
 11 12  1  0  0  0
 17 19  1  0  0  0
 18 20  1  0  0  0
 19 20  2  0  0  0
  3 13  1  0  0  0
 14 21  1  0  0  0
M  END
> <PUBCHEM_COMPOUND_CID>
5391140

> <PUBCHEM_CONFORMER_RMSD>
0.6

> <PUBCHEM_CONFORMER_DIVERSEORDER>
1
3
5
2
4
6

> <PUBCHEM_MMFF94_PARTIAL_CHARGES>
29
1 -0.16
10 -0.14
11 -0.15
12 -0.15
13 -0.15
14 0.08
15 -0.15
16 -0.15
17 0.08
18 -0.15
19 -0.15
2 -0.57
20 0.15
21 0.15
22 0.15
23 0.15
24 0.15
25 0.15
26 0.15
27 0.15
28 0.45
29 0.45
3 -0.53
4 -0.53
5 0.09
6 0.08
7 0.05
8 0.03
9 0.47

> <PUBCHEM_EFFECTIVE_ROTOR_COUNT>
1

> <PUBCHEM_PHARMACOPHORE_FEATURES>
7
1 1 acceptor
1 2 acceptor
1 3 donor
1 4 donor
6 1 5 6 7 9 10 rings
6 5 6 11 12 14 16 rings
6 8 13 15 17 18 19 rings

> <PUBCHEM_HEAVY_ATOM_COUNT>
19

> <PUBCHEM_ATOM_DEF_STEREO_COUNT>
0

> <PUBCHEM_ATOM_UDEF_STEREO_COUNT>
0

> <PUBCHEM_BOND_DEF_STEREO_COUNT>
0

> <PUBCHEM_BOND_UDEF_STEREO_COUNT>
0

> <PUBCHEM_ISOTOPIC_ATOM_COUNT>
0

> <PUBCHEM_COMPONENT_COUNT>
1

> <PUBCHEM_CACTVS_TAUTO_COUNT>
15

> <PUBCHEM_CONFORMER_ID>
0052432400000001

> <PUBCHEM_MMFF94_ENERGY>
56.24

> <PUBCHEM_FEATURE_SELFOVERLAP>
35.55

> <PUBCHEM_SHAPE_FINGERPRINT>
10411042 1 17764023971247538183
10616163 171 18340206396663569878
12107183 9 18120083984162219642
12173636 292 18341324591097994070
12236239 1 18186516605170833426
122479 349 18335706030808521499
12251169 10 18408037395057954254
12390115 104 18129681720129959673
12403814 3 17968090915548062085
12788726 201 18047462602246754227
13167823 11 18335136505571419298
13583140 156 17313381210724963987
14739800 52 18126830811355286288
14767858 380 18271506643171306565
14790565 3 18341057320016500809
15042514 8 18267306611463768499
15196674 1 18410292501584812401
15442244 35 18336541634551002090
15669948 3 18270956963670044014
17492 89 18336547209224198594
17834072 32 18411703145123510001
18222031 100 12035748530083685265
19050596 39 18261105309937007370
204376 136 18340491062979608451
20510252 161 18273219690212391635
20715895 44 18048872992650854101
21267235 1 18408892845195723258
21524375 3 18341046324725623235
23227448 37 18340206396367683813
23366157 5 18118408332372998023
23402539 116 18201146681199345037
23402655 69 18408324410869394556
23503953 91 18336816542490854536
23559900 14 18058733490390738958
245318 6 16449267575194642308
2838139 119 17315329468305257485
335352 9 18338797789382443494
350125 39 18412829118746338905
3545911 37 18412826893699682034
38570 142 17388288803696207004
4214541 1 18410572885914142960
474 4 17532093967931437564
474229 33 18412263939641587203
5104073 3 18333729135014281200
633830 44 18410573946592139662
69090 78 18409444769577536707
7064713 232 18339920420323619672
77779 3 18408604768679828562
7832392 63 18409447012135982196
9709674 26 18342462542894507542

> <PUBCHEM_SHAPE_MULTIPOLES>
367.53
9.94
2.57
0.7
3.54
0.25
-0.01
-4.84
-0.47
-1.3
0.26
0.25
0
-1.12

> <PUBCHEM_SHAPE_SELFOVERLAP>
821.245

> <PUBCHEM_SHAPE_VOLUME>
194.1

> <PUBCHEM_COORDINATE_TYPE>
2
5
10

> <minimizedAffinity>
-5.50952

> <CNNscore>
0.4041832089

> <CNNaffinity>
4.1811990738

> <CNN_VS>
1.6899704933

> <CNNaffinity_variance>
0.0364391133

$$$$
