68077


 27 29  0  0  0  0  0  0  0  0999 V2000
  -20.2076    0.8354   13.4234 O   0  0  0  0  0  0  0  0  0  0  0  0
  -17.0894   -0.6713   11.2774 O   0  0  0  0  0  0  0  0  0  0  0  0
  -18.9722    0.7554   11.3335 C   0  0  0  0  0  0  0  0  0  0  0  0
  -20.0170    1.2317   12.1238 C   0  0  0  0  0  0  0  0  0  0  0  0
  -18.8263    1.1948   10.0157 C   0  0  0  0  0  0  0  0  0  0  0  0
  -20.9240    2.1527   11.5995 C   0  0  0  0  0  0  0  0  0  0  0  0
  -19.7352    2.1159    9.4936 C   0  0  0  0  0  0  0  0  0  0  0  0
  -20.7819    2.5940   10.2837 C   0  0  0  0  0  0  0  0  0  0  0  0
  -19.3251   -0.0841   13.9697 C   0  0  0  0  0  0  0  0  0  0  0  0
  -18.0294   -0.2138   11.9123 C   0  0  0  0  0  0  0  0  0  0  0  0
  -18.2786   -0.6096   13.3132 C   0  0  0  0  0  0  0  0  0  0  0  0
  -19.6180   -0.4354   15.3739 C   0  0  0  0  0  0  0  0  0  0  0  0
  -19.5197    0.5339   16.3751 C   0  0  0  0  0  0  0  0  0  0  0  0
  -19.9938   -1.7390   15.7073 C   0  0  0  0  0  0  0  0  0  0  0  0
  -19.7957    0.2016   17.7015 C   0  0  0  0  0  0  0  0  0  0  0  0
  -20.2698   -2.0713   17.0337 C   0  0  0  0  0  0  0  0  0  0  0  0
  -20.1708   -1.1009   18.0308 C   0  0  0  0  0  0  0  0  0  0  0  0
  -20.4396   -1.4248   19.3249 O   0  0  0  0  0  0  0  0  0  0  0  0
  -21.4535   -2.4027   19.5525 C   0  0  0  0  0  0  0  0  0  0  0  0
  -17.8173    0.7510    9.2135 O   0  0  0  0  0  0  0  0  0  0  0  0
  -16.5790    1.4544    9.2821 C   0  0  0  0  0  0  0  0  0  0  0  0
  -21.9481    2.6234   12.3670 O   0  0  0  0  0  0  0  0  0  0  0  0
  -21.7096    3.8234   13.0988 C   0  0  0  0  0  0  0  0  0  0  0  0
  -19.6028    2.5520    8.2078 O   0  0  0  0  0  0  0  0  0  0  0  0
  -18.9857    3.8226    8.0168 C   0  0  0  0  0  0  0  0  0  0  0  0
  -21.6676    3.4938    9.7681 O   0  0  0  0  0  0  0  0  0  0  0  0
  -22.8262    2.9659    9.1270 C   0  0  0  0  0  0  0  0  0  0  0  0
  1  4  1  0  0  0
  1  9  1  0  0  0
 20  5  1  0  0  0
 20 21  1  0  0  0
 22  6  1  0  0  0
 22 23  1  0  0  0
 24  7  1  0  0  0
 24 25  1  0  0  0
 26  8  1  0  0  0
 26 27  1  0  0  0
  2 10  2  0  0  0
 18 17  1  0  0  0
 18 19  1  0  0  0
  3  4  1  0  0  0
  3  5  2  0  0  0
  3 10  1  0  0  0
  4  6  2  0  0  0
  5  7  1  0  0  0
  6  8  1  0  0  0
  7  8  2  0  0  0
  9 11  2  0  0  0
  9 12  1  0  0  0
 10 11  1  0  0  0
 12 13  1  0  0  0
 12 14  2  0  0  0
 13 15  2  0  0  0
 14 16  1  0  0  0
 15 17  1  0  0  0
 16 17  2  0  0  0
M  END
> <PUBCHEM_COMPOUND_CID>
68077

> <PUBCHEM_CONFORMER_RMSD>
0.8

> <PUBCHEM_CONFORMER_DIVERSEORDER>
1
2
4
3
5

> <PUBCHEM_MMFF94_PARTIAL_CHARGES>
32
1 -0.16
10 0.08
11 0.08
12 0.08
13 0.08
14 0.05
15 0.47
16 -0.14
17 0.03
18 -0.15
19 -0.15
2 -0.36
20 -0.15
21 -0.15
22 0.08
23 0.28
24 0.28
25 0.28
26 0.28
27 0.28
28 0.15
29 0.15
3 -0.36
30 0.15
31 0.15
32 0.15
4 -0.36
5 -0.36
6 -0.57
7 -0.36
8 0.09
9 0.08

> <PUBCHEM_EFFECTIVE_ROTOR_COUNT>
6

> <PUBCHEM_PHARMACOPHORE_FEATURES>
10
1 1 acceptor
1 2 acceptor
1 3 acceptor
1 4 acceptor
1 5 acceptor
1 6 acceptor
1 7 acceptor
6 1 8 9 14 15 16 rings
6 17 18 19 20 21 22 rings
6 8 9 10 11 12 13 rings

> <PUBCHEM_HEAVY_ATOM_COUNT>
27

> <PUBCHEM_ATOM_DEF_STEREO_COUNT>
0

> <PUBCHEM_ATOM_UDEF_STEREO_COUNT>
0

> <PUBCHEM_BOND_DEF_STEREO_COUNT>
0

> <PUBCHEM_BOND_UDEF_STEREO_COUNT>
0

> <PUBCHEM_ISOTOPIC_ATOM_COUNT>
0

> <PUBCHEM_COMPONENT_COUNT>
1

> <PUBCHEM_CACTVS_TAUTO_COUNT>
1

> <PUBCHEM_CONFORMER_ID>
000109ED00000001

> <PUBCHEM_MMFF94_ENERGY>
133.7177

> <PUBCHEM_FEATURE_SELFOVERLAP>
50.813

> <PUBCHEM_SHAPE_FINGERPRINT>
10 15 18261392287199581512
10290309 65 18338800000969197959
10319926 262 18339625795180221442
10411042 1 17904484352760856803
10498660 4 18337389323107782700
10675989 125 17037808150477284381
1100329 8 18339366370037905273
11135609 187 18119800319348936373
11578080 2 16952235522629066967
11595378 159 17749658620022820704
12236239 1 17458345221671967730
12390115 104 18269849622290455201
12403259 415 18337956692724736172
12788726 201 18338795611296097536
12838862 33 18336812140165479381
13140716 1 18266186222262775705
13402501 40 18343301487815180136
14341114 176 18411424977793525492
14765038 42 18129679503900370641
14790565 3 17693382135858652529
14955137 171 18337690697253324307
15042514 8 18190749815786770835
15196674 1 18411421674272565322
16087824 20 18410008820588049527
18336668 15 18040718107885295125
18608769 82 18338801216339194706
20510252 161 18341051826378061824
21033648 29 18410844448043641968
21236236 1 18341894138084472791
21267235 1 18336555970508089003
21279426 13 18267586810729112942
22122407 14 15285366097778249086
23402539 116 18341610455642219838
23557571 272 18341899623427129244
23559900 14 18271520996398062896
283562 15 18409729543521706067
335352 9 18411135866586404965
34934 24 18409726232339485835
350125 39 18409735083602412144
3545911 37 18413110554888657816
4073 2 18260554463576395058
4214541 1 18410856551682890222
5104073 3 18116155463074676113
5171179 24 17913759780911578721
59755656 215 18339646637617369302
6327066 14 18115859703543745205
9709674 26 18341057380304194526
9981440 41 18186806837654907339

> <PUBCHEM_SHAPE_MULTIPOLES>
514.56
14.02
3.47
0.89
20.47
0.41
-0.06
3.52
0.04
-3.74
-0.33
-0.75
0.27
0.95

> <PUBCHEM_SHAPE_SELFOVERLAP>
1118.89

> <PUBCHEM_SHAPE_VOLUME>
282

> <PUBCHEM_COORDINATE_TYPE>
2
5
10

> <minimizedAffinity>
-6.69076

> <CNNscore>
0.4882407784

> <CNNaffinity>
5.0012302399

> <CNN_VS>
2.4418046474

> <CNNaffinity_variance>
0.4280146062

$$$$
