68077


 27 29  0  0  0  0  0  0  0  0999 V2000
  -20.2076    0.8354   13.4234 O   0  0  0  0  0  0  0  0  0  0  0  0
  -17.0894   -0.6713   11.2774 O   0  0  0  0  0  0  0  0  0  0  0  0
  -18.9722    0.7554   11.3335 C   0  0  0  0  0  0  0  0  0  0  0  0
  -20.0170    1.2317   12.1238 C   0  0  0  0  0  0  0  0  0  0  0  0
  -18.8263    1.1948   10.0157 C   0  0  0  0  0  0  0  0  0  0  0  0
  -20.9240    2.1527   11.5995 C   0  0  0  0  0  0  0  0  0  0  0  0
  -19.7352    2.1159    9.4936 C   0  0  0  0  0  0  0  0  0  0  0  0
  -20.7819    2.5940   10.2837 C   0  0  0  0  0  0  0  0  0  0  0  0
  -19.3251   -0.0841   13.9697 C   0  0  0  0  0  0  0  0  0  0  0  0
  -18.0294   -0.2138   11.9123 C   0  0  0  0  0  0  0  0  0  0  0  0
  -18.2786   -0.6096   13.3132 C   0  0  0  0  0  0  0  0  0  0  0  0
  -19.6180   -0.4354   15.3739 C   0  0  0  0  0  0  0  0  0  0  0  0
  -19.5197    0.5339   16.3751 C   0  0  0  0  0  0  0  0  0  0  0  0
  -19.9938   -1.7390   15.7073 C   0  0  0  0  0  0  0  0  0  0  0  0
  -19.7957    0.2016   17.7015 C   0  0  0  0  0  0  0  0  0  0  0  0
  -20.2698   -2.0713   17.0337 C   0  0  0  0  0  0  0  0  0  0  0  0
  -20.1708   -1.1009   18.0308 C   0  0  0  0  0  0  0  0  0  0  0  0
  -20.4396   -1.4248   19.3249 O   0  0  0  0  0  0  0  0  0  0  0  0
  -21.4535   -2.4027   19.5525 C   0  0  0  0  0  0  0  0  0  0  0  0
  -17.8173    0.7510    9.2135 O   0  0  0  0  0  0  0  0  0  0  0  0
  -16.5790    1.4544    9.2821 C   0  0  0  0  0  0  0  0  0  0  0  0
  -21.9481    2.6234   12.3670 O   0  0  0  0  0  0  0  0  0  0  0  0
  -21.7096    3.8234   13.0988 C   0  0  0  0  0  0  0  0  0  0  0  0
  -19.6028    2.5520    8.2078 O   0  0  0  0  0  0  0  0  0  0  0  0
  -18.9857    3.8226    8.0168 C   0  0  0  0  0  0  0  0  0  0  0  0
  -21.6676    3.4938    9.7681 O   0  0  0  0  0  0  0  0  0  0  0  0
  -22.8262    2.9659    9.1270 C   0  0  0  0  0  0  0  0  0  0  0  0
  1  4  1  0  0  0
  1  9  1  0  0  0
 20  5  1  0  0  0
 20 21  1  0  0  0
 22  6  1  0  0  0
 22 23  1  0  0  0
 24  7  1  0  0  0
 24 25  1  0  0  0
 26  8  1  0  0  0
 26 27  1  0  0  0
  2 10  2  0  0  0
 18 17  1  0  0  0
 18 19  1  0  0  0
  3  4  1  0  0  0
  3  5  2  0  0  0
  3 10  1  0  0  0
  4  6  2  0  0  0
  5  7  1  0  0  0
  6  8  1  0  0  0
  7  8  2  0  0  0
  9 11  2  0  0  0
  9 12  1  0  0  0
 10 11  1  0  0  0
 12 13  1  0  0  0
 12 14  2  0  0  0
 13 15  2  0  0  0
 14 16  1  0  0  0
 15 17  1  0  0  0
 16 17  2  0  0  0
M  END
> <PUBCHEM_COMPOUND_CID>
68077

> <PUBCHEM_CONFORMER_RMSD>
0.8

> <PUBCHEM_CONFORMER_DIVERSEORDER>
1
2
4
3
5

> <PUBCHEM_MMFF94_PARTIAL_CHARGES>
32
1 -0.16
10 0.08
11 0.08
12 0.08
13 0.08
14 0.05
15 0.47
16 -0.14
17 0.03
18 -0.15
19 -0.15
2 -0.36
20 -0.15
21 -0.15
22 0.08
23 0.28
24 0.28
25 0.28
26 0.28
27 0.28
28 0.15
29 0.15
3 -0.36
30 0.15
31 0.15
32 0.15
4 -0.36
5 -0.36
6 -0.57
7 -0.36
8 0.09
9 0.08

> <PUBCHEM_EFFECTIVE_ROTOR_COUNT>
6

> <PUBCHEM_PHARMACOPHORE_FEATURES>
10
1 1 acceptor
1 2 acceptor
1 3 acceptor
1 4 acceptor
1 5 acceptor
1 6 acceptor
1 7 acceptor
6 1 8 9 14 15 16 rings
6 17 18 19 20 21 22 rings
6 8 9 10 11 12 13 rings

> <PUBCHEM_HEAVY_ATOM_COUNT>
27

> <PUBCHEM_ATOM_DEF_STEREO_COUNT>
0

> <PUBCHEM_ATOM_UDEF_STEREO_COUNT>
0

> <PUBCHEM_BOND_DEF_STEREO_COUNT>
0

> <PUBCHEM_BOND_UDEF_STEREO_COUNT>
0

> <PUBCHEM_ISOTOPIC_ATOM_COUNT>
0

> <PUBCHEM_COMPONENT_COUNT>
1

> <PUBCHEM_CACTVS_TAUTO_COUNT>
1

> <PUBCHEM_CONFORMER_ID>
000109ED00000001

> <PUBCHEM_MMFF94_ENERGY>
133.7177

> <PUBCHEM_FEATURE_SELFOVERLAP>
50.813

> <PUBCHEM_SHAPE_FINGERPRINT>
10 15 18261392287199581512
10290309 65 18338800000969197959
10319926 262 18339625795180221442
10411042 1 17904484352760856803
10498660 4 18337389323107782700
10675989 125 17037808150477284381
1100329 8 18339366370037905273
11135609 187 18119800319348936373
11578080 2 16952235522629066967
11595378 159 17749658620022820704
12236239 1 17458345221671967730
12390115 104 18269849622290455201
12403259 415 18337956692724736172
12788726 201 18338795611296097536
12838862 33 18336812140165479381
13140716 1 18266186222262775705
13402501 40 18343301487815180136
14341114 176 18411424977793525492
14765038 42 18129679503900370641
14790565 3 17693382135858652529
14955137 171 18337690697253324307
15042514 8 18190749815786770835
15196674 1 18411421674272565322
16087824 20 18410008820588049527
18336668 15 18040718107885295125
18608769 82 18338801216339194706
20510252 161 18341051826378061824
21033648 29 18410844448043641968
21236236 1 18341894138084472791
21267235 1 18336555970508089003
21279426 13 18267586810729112942
22122407 14 15285366097778249086
23402539 116 18341610455642219838
23557571 272 18341899623427129244
23559900 14 18271520996398062896
283562 15 18409729543521706067
335352 9 18411135866586404965
34934 24 18409726232339485835
350125 39 18409735083602412144
3545911 37 18413110554888657816
4073 2 18260554463576395058
4214541 1 18410856551682890222
5104073 3 18116155463074676113
5171179 24 17913759780911578721
59755656 215 18339646637617369302
6327066 14 18115859703543745205
9709674 26 18341057380304194526
9981440 41 18186806837654907339

> <PUBCHEM_SHAPE_MULTIPOLES>
514.56
14.02
3.47
0.89
20.47
0.41
-0.06
3.52
0.04
-3.74
-0.33
-0.75
0.27
0.95

> <PUBCHEM_SHAPE_SELFOVERLAP>
1118.89

> <PUBCHEM_SHAPE_VOLUME>
282

> <PUBCHEM_COORDINATE_TYPE>
2
5
10

> <minimizedAffinity>
-6.69076

> <CNNscore>
0.4882407784

> <CNNaffinity>
5.0012302399

> <CNN_VS>
2.4418046474

> <CNNaffinity_variance>
0.4280146062

$$$$
68077


 27 29  0  0  0  0  0  0  0  0999 V2000
  -20.2561   -2.0309   13.4206 O   0  0  0  0  0  0  0  0  0  0  0  0
  -18.3264    0.6431   11.0281 O   0  0  0  0  0  0  0  0  0  0  0  0
  -19.1643    0.1251   13.1759 C   0  0  0  0  0  0  0  0  0  0  0  0
  -19.8291   -0.8342   13.9381 C   0  0  0  0  0  0  0  0  0  0  0  0
  -18.7514    1.3265   13.7564 C   0  0  0  0  0  0  0  0  0  0  0  0
  -20.0851   -0.5969   15.2886 C   0  0  0  0  0  0  0  0  0  0  0  0
  -19.0090    1.5615   15.1074 C   0  0  0  0  0  0  0  0  0  0  0  0
  -19.6745    0.6020   15.8721 C   0  0  0  0  0  0  0  0  0  0  0  0
  -20.0210   -2.2920   12.0792 C   0  0  0  0  0  0  0  0  0  0  0  0
  -18.9058   -0.1520   11.7547 C   0  0  0  0  0  0  0  0  0  0  0  0
  -19.3866   -1.4524   11.2457 C   0  0  0  0  0  0  0  0  0  0  0  0
  -20.5152   -3.6089   11.6289 C   0  0  0  0  0  0  0  0  0  0  0  0
  -19.6237   -4.6694   11.4501 C   0  0  0  0  0  0  0  0  0  0  0  0
  -21.8764   -3.7994   11.3789 C   0  0  0  0  0  0  0  0  0  0  0  0
  -20.0907   -5.9130   11.0240 C   0  0  0  0  0  0  0  0  0  0  0  0
  -22.3433   -5.0429   10.9529 C   0  0  0  0  0  0  0  0  0  0  0  0
  -21.4505   -6.0997   10.7755 C   0  0  0  0  0  0  0  0  0  0  0  0
  -21.9056   -7.3129   10.3595 O   0  0  0  0  0  0  0  0  0  0  0  0
  -23.0609   -7.3209    9.5222 C   0  0  0  0  0  0  0  0  0  0  0  0
  -18.0992    2.2874   13.0422 O   0  0  0  0  0  0  0  0  0  0  0  0
  -18.8956    3.3264   12.4774 C   0  0  0  0  0  0  0  0  0  0  0  0
  -20.7344   -1.5310   16.0404 O   0  0  0  0  0  0  0  0  0  0  0  0
  -19.9311   -2.3621   16.8749 C   0  0  0  0  0  0  0  0  0  0  0  0
  -18.6107    2.7314   15.6851 O   0  0  0  0  0  0  0  0  0  0  0  0
  -19.6162    3.7166   15.9089 C   0  0  0  0  0  0  0  0  0  0  0  0
  -19.9242    0.8370   17.1921 O   0  0  0  0  0  0  0  0  0  0  0  0
  -18.9590    0.3615   18.1274 C   0  0  0  0  0  0  0  0  0  0  0  0
  1  4  1  0  0  0
  1  9  1  0  0  0
 20  5  1  0  0  0
 20 21  1  0  0  0
 22  6  1  0  0  0
 22 23  1  0  0  0
 24  7  1  0  0  0
 24 25  1  0  0  0
 26  8  1  0  0  0
 26 27  1  0  0  0
  2 10  2  0  0  0
 18 17  1  0  0  0
 18 19  1  0  0  0
  3  4  1  0  0  0
  3  5  2  0  0  0
  3 10  1  0  0  0
  4  6  2  0  0  0
  5  7  1  0  0  0
  6  8  1  0  0  0
  7  8  2  0  0  0
  9 11  2  0  0  0
  9 12  1  0  0  0
 10 11  1  0  0  0
 12 13  1  0  0  0
 12 14  2  0  0  0
 13 15  2  0  0  0
 14 16  1  0  0  0
 15 17  1  0  0  0
 16 17  2  0  0  0
M  END
> <PUBCHEM_COMPOUND_CID>
68077

> <PUBCHEM_CONFORMER_RMSD>
0.8

> <PUBCHEM_CONFORMER_DIVERSEORDER>
1
2
4
3
5

> <PUBCHEM_MMFF94_PARTIAL_CHARGES>
32
1 -0.16
10 0.08
11 0.08
12 0.08
13 0.08
14 0.05
15 0.47
16 -0.14
17 0.03
18 -0.15
19 -0.15
2 -0.36
20 -0.15
21 -0.15
22 0.08
23 0.28
24 0.28
25 0.28
26 0.28
27 0.28
28 0.15
29 0.15
3 -0.36
30 0.15
31 0.15
32 0.15
4 -0.36
5 -0.36
6 -0.57
7 -0.36
8 0.09
9 0.08

> <PUBCHEM_EFFECTIVE_ROTOR_COUNT>
6

> <PUBCHEM_PHARMACOPHORE_FEATURES>
10
1 1 acceptor
1 2 acceptor
1 3 acceptor
1 4 acceptor
1 5 acceptor
1 6 acceptor
1 7 acceptor
6 1 8 9 14 15 16 rings
6 17 18 19 20 21 22 rings
6 8 9 10 11 12 13 rings

> <PUBCHEM_HEAVY_ATOM_COUNT>
27

> <PUBCHEM_ATOM_DEF_STEREO_COUNT>
0

> <PUBCHEM_ATOM_UDEF_STEREO_COUNT>
0

> <PUBCHEM_BOND_DEF_STEREO_COUNT>
0

> <PUBCHEM_BOND_UDEF_STEREO_COUNT>
0

> <PUBCHEM_ISOTOPIC_ATOM_COUNT>
0

> <PUBCHEM_COMPONENT_COUNT>
1

> <PUBCHEM_CACTVS_TAUTO_COUNT>
1

> <PUBCHEM_CONFORMER_ID>
000109ED00000001

> <PUBCHEM_MMFF94_ENERGY>
133.7177

> <PUBCHEM_FEATURE_SELFOVERLAP>
50.813

> <PUBCHEM_SHAPE_FINGERPRINT>
10 15 18261392287199581512
10290309 65 18338800000969197959
10319926 262 18339625795180221442
10411042 1 17904484352760856803
10498660 4 18337389323107782700
10675989 125 17037808150477284381
1100329 8 18339366370037905273
11135609 187 18119800319348936373
11578080 2 16952235522629066967
11595378 159 17749658620022820704
12236239 1 17458345221671967730
12390115 104 18269849622290455201
12403259 415 18337956692724736172
12788726 201 18338795611296097536
12838862 33 18336812140165479381
13140716 1 18266186222262775705
13402501 40 18343301487815180136
14341114 176 18411424977793525492
14765038 42 18129679503900370641
14790565 3 17693382135858652529
14955137 171 18337690697253324307
15042514 8 18190749815786770835
15196674 1 18411421674272565322
16087824 20 18410008820588049527
18336668 15 18040718107885295125
18608769 82 18338801216339194706
20510252 161 18341051826378061824
21033648 29 18410844448043641968
21236236 1 18341894138084472791
21267235 1 18336555970508089003
21279426 13 18267586810729112942
22122407 14 15285366097778249086
23402539 116 18341610455642219838
23557571 272 18341899623427129244
23559900 14 18271520996398062896
283562 15 18409729543521706067
335352 9 18411135866586404965
34934 24 18409726232339485835
350125 39 18409735083602412144
3545911 37 18413110554888657816
4073 2 18260554463576395058
4214541 1 18410856551682890222
5104073 3 18116155463074676113
5171179 24 17913759780911578721
59755656 215 18339646637617369302
6327066 14 18115859703543745205
9709674 26 18341057380304194526
9981440 41 18186806837654907339

> <PUBCHEM_SHAPE_MULTIPOLES>
514.56
14.02
3.47
0.89
20.47
0.41
-0.06
3.52
0.04
-3.74
-0.33
-0.75
0.27
0.95

> <PUBCHEM_SHAPE_SELFOVERLAP>
1118.89

> <PUBCHEM_SHAPE_VOLUME>
282

> <PUBCHEM_COORDINATE_TYPE>
2
5
10

> <minimizedAffinity>
-6.19356

> <CNNscore>
0.3518562019

> <CNNaffinity>
4.9202837944

> <CNN_VS>
1.7312324047

> <CNNaffinity_variance>
0.6892889738

$$$$
68077


 27 29  0  0  0  0  0  0  0  0999 V2000
  -21.6767   -1.1191   11.4138 O   0  0  0  0  0  0  0  0  0  0  0  0
  -20.5136   -2.5606   15.0425 O   0  0  0  0  0  0  0  0  0  0  0  0
  -19.9891   -1.2366   13.1569 C   0  0  0  0  0  0  0  0  0  0  0  0
  -20.4493   -0.7785   11.9234 C   0  0  0  0  0  0  0  0  0  0  0  0
  -18.7299   -0.8562   13.6266 C   0  0  0  0  0  0  0  0  0  0  0  0
  -19.6508    0.0649   11.1508 C   0  0  0  0  0  0  0  0  0  0  0  0
  -17.9331   -0.0128   12.8516 C   0  0  0  0  0  0  0  0  0  0  0  0
  -18.3924    0.4470   11.6163 C   0  0  0  0  0  0  0  0  0  0  0  0
  -22.4899   -1.9613   12.1569 C   0  0  0  0  0  0  0  0  0  0  0  0
  -20.8525   -2.1234   13.9516 C   0  0  0  0  0  0  0  0  0  0  0  0
  -22.1621   -2.4616   13.3588 C   0  0  0  0  0  0  0  0  0  0  0  0
  -23.7887   -2.2573   11.5193 C   0  0  0  0  0  0  0  0  0  0  0  0
  -24.9750   -1.7982   12.0970 C   0  0  0  0  0  0  0  0  0  0  0  0
  -23.8368   -2.9985   10.3361 C   0  0  0  0  0  0  0  0  0  0  0  0
  -26.2017   -2.0787   11.4949 C   0  0  0  0  0  0  0  0  0  0  0  0
  -25.0634   -3.2788    9.7340 C   0  0  0  0  0  0  0  0  0  0  0  0
  -26.2459   -2.8189   10.3134 C   0  0  0  0  0  0  0  0  0  0  0  0
  -27.4429   -3.0925    9.7266 O   0  0  0  0  0  0  0  0  0  0  0  0
  -27.4445   -4.0537    8.6720 C   0  0  0  0  0  0  0  0  0  0  0  0
  -18.2470   -1.2845   14.8274 O   0  0  0  0  0  0  0  0  0  0  0  0
  -18.5391   -0.4789   15.9669 C   0  0  0  0  0  0  0  0  0  0  0  0
  -20.0948    0.5174    9.9435 O   0  0  0  0  0  0  0  0  0  0  0  0
  -20.0652    1.9267    9.7301 C   0  0  0  0  0  0  0  0  0  0  0  0
  -16.7013    0.3651   13.3000 O   0  0  0  0  0  0  0  0  0  0  0  0
  -15.5936    0.1054   12.4414 C   0  0  0  0  0  0  0  0  0  0  0  0
  -17.6092    1.2709   10.8627 O   0  0  0  0  0  0  0  0  0  0  0  0
  -17.4387    2.6067   11.3303 C   0  0  0  0  0  0  0  0  0  0  0  0
  1  4  1  0  0  0
  1  9  1  0  0  0
 20  5  1  0  0  0
 20 21  1  0  0  0
 22  6  1  0  0  0
 22 23  1  0  0  0
 24  7  1  0  0  0
 24 25  1  0  0  0
 26  8  1  0  0  0
 26 27  1  0  0  0
  2 10  2  0  0  0
 18 17  1  0  0  0
 18 19  1  0  0  0
  3  4  1  0  0  0
  3  5  2  0  0  0
  3 10  1  0  0  0
  4  6  2  0  0  0
  5  7  1  0  0  0
  6  8  1  0  0  0
  7  8  2  0  0  0
  9 11  2  0  0  0
  9 12  1  0  0  0
 10 11  1  0  0  0
 12 13  1  0  0  0
 12 14  2  0  0  0
 13 15  2  0  0  0
 14 16  1  0  0  0
 15 17  1  0  0  0
 16 17  2  0  0  0
M  END
> <PUBCHEM_COMPOUND_CID>
68077

> <PUBCHEM_CONFORMER_RMSD>
0.8

> <PUBCHEM_CONFORMER_DIVERSEORDER>
1
2
4
3
5

> <PUBCHEM_MMFF94_PARTIAL_CHARGES>
32
1 -0.16
10 0.08
11 0.08
12 0.08
13 0.08
14 0.05
15 0.47
16 -0.14
17 0.03
18 -0.15
19 -0.15
2 -0.36
20 -0.15
21 -0.15
22 0.08
23 0.28
24 0.28
25 0.28
26 0.28
27 0.28
28 0.15
29 0.15
3 -0.36
30 0.15
31 0.15
32 0.15
4 -0.36
5 -0.36
6 -0.57
7 -0.36
8 0.09
9 0.08

> <PUBCHEM_EFFECTIVE_ROTOR_COUNT>
6

> <PUBCHEM_PHARMACOPHORE_FEATURES>
10
1 1 acceptor
1 2 acceptor
1 3 acceptor
1 4 acceptor
1 5 acceptor
1 6 acceptor
1 7 acceptor
6 1 8 9 14 15 16 rings
6 17 18 19 20 21 22 rings
6 8 9 10 11 12 13 rings

> <PUBCHEM_HEAVY_ATOM_COUNT>
27

> <PUBCHEM_ATOM_DEF_STEREO_COUNT>
0

> <PUBCHEM_ATOM_UDEF_STEREO_COUNT>
0

> <PUBCHEM_BOND_DEF_STEREO_COUNT>
0

> <PUBCHEM_BOND_UDEF_STEREO_COUNT>
0

> <PUBCHEM_ISOTOPIC_ATOM_COUNT>
0

> <PUBCHEM_COMPONENT_COUNT>
1

> <PUBCHEM_CACTVS_TAUTO_COUNT>
1

> <PUBCHEM_CONFORMER_ID>
000109ED00000001

> <PUBCHEM_MMFF94_ENERGY>
133.7177

> <PUBCHEM_FEATURE_SELFOVERLAP>
50.813

> <PUBCHEM_SHAPE_FINGERPRINT>
10 15 18261392287199581512
10290309 65 18338800000969197959
10319926 262 18339625795180221442
10411042 1 17904484352760856803
10498660 4 18337389323107782700
10675989 125 17037808150477284381
1100329 8 18339366370037905273
11135609 187 18119800319348936373
11578080 2 16952235522629066967
11595378 159 17749658620022820704
12236239 1 17458345221671967730
12390115 104 18269849622290455201
12403259 415 18337956692724736172
12788726 201 18338795611296097536
12838862 33 18336812140165479381
13140716 1 18266186222262775705
13402501 40 18343301487815180136
14341114 176 18411424977793525492
14765038 42 18129679503900370641
14790565 3 17693382135858652529
14955137 171 18337690697253324307
15042514 8 18190749815786770835
15196674 1 18411421674272565322
16087824 20 18410008820588049527
18336668 15 18040718107885295125
18608769 82 18338801216339194706
20510252 161 18341051826378061824
21033648 29 18410844448043641968
21236236 1 18341894138084472791
21267235 1 18336555970508089003
21279426 13 18267586810729112942
22122407 14 15285366097778249086
23402539 116 18341610455642219838
23557571 272 18341899623427129244
23559900 14 18271520996398062896
283562 15 18409729543521706067
335352 9 18411135866586404965
34934 24 18409726232339485835
350125 39 18409735083602412144
3545911 37 18413110554888657816
4073 2 18260554463576395058
4214541 1 18410856551682890222
5104073 3 18116155463074676113
5171179 24 17913759780911578721
59755656 215 18339646637617369302
6327066 14 18115859703543745205
9709674 26 18341057380304194526
9981440 41 18186806837654907339

> <PUBCHEM_SHAPE_MULTIPOLES>
514.56
14.02
3.47
0.89
20.47
0.41
-0.06
3.52
0.04
-3.74
-0.33
-0.75
0.27
0.95

> <PUBCHEM_SHAPE_SELFOVERLAP>
1118.89

> <PUBCHEM_SHAPE_VOLUME>
282

> <PUBCHEM_COORDINATE_TYPE>
2
5
10

> <minimizedAffinity>
1.94499

> <CNNscore>
0.3456942439

> <CNNaffinity>
4.6742029190

> <CNN_VS>
1.6158450842

> <CNNaffinity_variance>
1.0053194761

$$$$
68077


 27 29  0  0  0  0  0  0  0  0999 V2000
  -24.3665   -2.8374    9.7247 O   0  0  0  0  0  0  0  0  0  0  0  0
  -24.5238   -3.1818    5.6682 O   0  0  0  0  0  0  0  0  0  0  0  0
  -23.7606   -4.0694    7.7209 C   0  0  0  0  0  0  0  0  0  0  0  0
  -23.7467   -3.8919    9.1034 C   0  0  0  0  0  0  0  0  0  0  0  0
  -23.1126   -5.1633    7.1425 C   0  0  0  0  0  0  0  0  0  0  0  0
  -23.0832   -4.8100    9.9175 C   0  0  0  0  0  0  0  0  0  0  0  0
  -22.4494   -6.0799    7.9592 C   0  0  0  0  0  0  0  0  0  0  0  0
  -22.4346   -5.9038    9.3438 C   0  0  0  0  0  0  0  0  0  0  0  0
  -25.0289   -1.9053    8.9404 C   0  0  0  0  0  0  0  0  0  0  0  0
  -24.4694   -3.0871    6.8864 C   0  0  0  0  0  0  0  0  0  0  0  0
  -25.1182   -1.9702    7.6024 C   0  0  0  0  0  0  0  0  0  0  0  0
  -25.6651   -0.8173    9.7102 C   0  0  0  0  0  0  0  0  0  0  0  0
  -25.9590   -0.9946   11.0644 C   0  0  0  0  0  0  0  0  0  0  0  0
  -25.9765    0.3938    9.0872 C   0  0  0  0  0  0  0  0  0  0  0  0
  -26.5607    0.0330   11.7910 C   0  0  0  0  0  0  0  0  0  0  0  0
  -26.5781    1.4213    9.8139 C   0  0  0  0  0  0  0  0  0  0  0  0
  -26.8701    1.2410   11.1659 C   0  0  0  0  0  0  0  0  0  0  0  0
  -27.4573    2.2430   11.8750 O   0  0  0  0  0  0  0  0  0  0  0  0
  -27.4590    2.1181   13.2965 C   0  0  0  0  0  0  0  0  0  0  0  0
  -23.1051   -5.3689    5.7949 O   0  0  0  0  0  0  0  0  0  0  0  0
  -21.8769   -5.1312    5.1108 C   0  0  0  0  0  0  0  0  0  0  0  0
  -23.0659   -4.6431   11.2708 O   0  0  0  0  0  0  0  0  0  0  0  0
  -24.0475   -5.3527   12.0227 C   0  0  0  0  0  0  0  0  0  0  0  0
  -21.8127   -7.1519    7.4055 O   0  0  0  0  0  0  0  0  0  0  0  0
  -22.5584   -8.3620    7.2993 C   0  0  0  0  0  0  0  0  0  0  0  0
  -21.7843   -6.8025   10.1372 O   0  0  0  0  0  0  0  0  0  0  0  0
  -20.5043   -6.4190   10.6338 C   0  0  0  0  0  0  0  0  0  0  0  0
  1  4  1  0  0  0
  1  9  1  0  0  0
 20  5  1  0  0  0
 20 21  1  0  0  0
 22  6  1  0  0  0
 22 23  1  0  0  0
 24  7  1  0  0  0
 24 25  1  0  0  0
 26  8  1  0  0  0
 26 27  1  0  0  0
  2 10  2  0  0  0
 18 17  1  0  0  0
 18 19  1  0  0  0
  3  4  1  0  0  0
  3  5  2  0  0  0
  3 10  1  0  0  0
  4  6  2  0  0  0
  5  7  1  0  0  0
  6  8  1  0  0  0
  7  8  2  0  0  0
  9 11  2  0  0  0
  9 12  1  0  0  0
 10 11  1  0  0  0
 12 13  1  0  0  0
 12 14  2  0  0  0
 13 15  2  0  0  0
 14 16  1  0  0  0
 15 17  1  0  0  0
 16 17  2  0  0  0
M  END
> <PUBCHEM_COMPOUND_CID>
68077

> <PUBCHEM_CONFORMER_RMSD>
0.8

> <PUBCHEM_CONFORMER_DIVERSEORDER>
1
2
4
3
5

> <PUBCHEM_MMFF94_PARTIAL_CHARGES>
32
1 -0.16
10 0.08
11 0.08
12 0.08
13 0.08
14 0.05
15 0.47
16 -0.14
17 0.03
18 -0.15
19 -0.15
2 -0.36
20 -0.15
21 -0.15
22 0.08
23 0.28
24 0.28
25 0.28
26 0.28
27 0.28
28 0.15
29 0.15
3 -0.36
30 0.15
31 0.15
32 0.15
4 -0.36
5 -0.36
6 -0.57
7 -0.36
8 0.09
9 0.08

> <PUBCHEM_EFFECTIVE_ROTOR_COUNT>
6

> <PUBCHEM_PHARMACOPHORE_FEATURES>
10
1 1 acceptor
1 2 acceptor
1 3 acceptor
1 4 acceptor
1 5 acceptor
1 6 acceptor
1 7 acceptor
6 1 8 9 14 15 16 rings
6 17 18 19 20 21 22 rings
6 8 9 10 11 12 13 rings

> <PUBCHEM_HEAVY_ATOM_COUNT>
27

> <PUBCHEM_ATOM_DEF_STEREO_COUNT>
0

> <PUBCHEM_ATOM_UDEF_STEREO_COUNT>
0

> <PUBCHEM_BOND_DEF_STEREO_COUNT>
0

> <PUBCHEM_BOND_UDEF_STEREO_COUNT>
0

> <PUBCHEM_ISOTOPIC_ATOM_COUNT>
0

> <PUBCHEM_COMPONENT_COUNT>
1

> <PUBCHEM_CACTVS_TAUTO_COUNT>
1

> <PUBCHEM_CONFORMER_ID>
000109ED00000001

> <PUBCHEM_MMFF94_ENERGY>
133.7177

> <PUBCHEM_FEATURE_SELFOVERLAP>
50.813

> <PUBCHEM_SHAPE_FINGERPRINT>
10 15 18261392287199581512
10290309 65 18338800000969197959
10319926 262 18339625795180221442
10411042 1 17904484352760856803
10498660 4 18337389323107782700
10675989 125 17037808150477284381
1100329 8 18339366370037905273
11135609 187 18119800319348936373
11578080 2 16952235522629066967
11595378 159 17749658620022820704
12236239 1 17458345221671967730
12390115 104 18269849622290455201
12403259 415 18337956692724736172
12788726 201 18338795611296097536
12838862 33 18336812140165479381
13140716 1 18266186222262775705
13402501 40 18343301487815180136
14341114 176 18411424977793525492
14765038 42 18129679503900370641
14790565 3 17693382135858652529
14955137 171 18337690697253324307
15042514 8 18190749815786770835
15196674 1 18411421674272565322
16087824 20 18410008820588049527
18336668 15 18040718107885295125
18608769 82 18338801216339194706
20510252 161 18341051826378061824
21033648 29 18410844448043641968
21236236 1 18341894138084472791
21267235 1 18336555970508089003
21279426 13 18267586810729112942
22122407 14 15285366097778249086
23402539 116 18341610455642219838
23557571 272 18341899623427129244
23559900 14 18271520996398062896
283562 15 18409729543521706067
335352 9 18411135866586404965
34934 24 18409726232339485835
350125 39 18409735083602412144
3545911 37 18413110554888657816
4073 2 18260554463576395058
4214541 1 18410856551682890222
5104073 3 18116155463074676113
5171179 24 17913759780911578721
59755656 215 18339646637617369302
6327066 14 18115859703543745205
9709674 26 18341057380304194526
9981440 41 18186806837654907339

> <PUBCHEM_SHAPE_MULTIPOLES>
514.56
14.02
3.47
0.89
20.47
0.41
-0.06
3.52
0.04
-3.74
-0.33
-0.75
0.27
0.95

> <PUBCHEM_SHAPE_SELFOVERLAP>
1118.89

> <PUBCHEM_SHAPE_VOLUME>
282

> <PUBCHEM_COORDINATE_TYPE>
2
5
10

> <minimizedAffinity>
-3.41019

> <CNNscore>
0.3353214860

> <CNNaffinity>
4.2770199776

> <CNN_VS>
1.4341766834

> <CNNaffinity_variance>
0.2378825396

$$$$
68077


 27 29  0  0  0  0  0  0  0  0999 V2000
  -20.8660    1.0721   11.7920 O   0  0  0  0  0  0  0  0  0  0  0  0
  -18.8605   -0.2310    8.4938 O   0  0  0  0  0  0  0  0  0  0  0  0
  -20.5378    1.1732    9.3874 C   0  0  0  0  0  0  0  0  0  0  0  0
  -21.1829    1.5755   10.5557 C   0  0  0  0  0  0  0  0  0  0  0  0
  -20.9018    1.7208    8.1551 C   0  0  0  0  0  0  0  0  0  0  0  0
  -22.1982    2.5303   10.4982 C   0  0  0  0  0  0  0  0  0  0  0  0
  -21.9180    2.6755    8.1003 C   0  0  0  0  0  0  0  0  0  0  0  0
  -22.5649    3.0796    9.2693 C   0  0  0  0  0  0  0  0  0  0  0  0
  -19.8648    0.1167   11.8794 C   0  0  0  0  0  0  0  0  0  0  0  0
  -19.4696    0.1661    9.4773 C   0  0  0  0  0  0  0  0  0  0  0  0
  -19.1675   -0.3455   10.8293 C   0  0  0  0  0  0  0  0  0  0  0  0
  -19.6005   -0.3511   13.2549 C   0  0  0  0  0  0  0  0  0  0  0  0
  -18.2973   -0.3512   13.7581 C   0  0  0  0  0  0  0  0  0  0  0  0
  -20.6527   -0.7966   14.0589 C   0  0  0  0  0  0  0  0  0  0  0  0
  -18.0479   -0.7940   15.0573 C   0  0  0  0  0  0  0  0  0  0  0  0
  -20.4033   -1.2392   15.3579 C   0  0  0  0  0  0  0  0  0  0  0  0
  -19.1009   -1.2378   15.8572 C   0  0  0  0  0  0  0  0  0  0  0  0
  -18.8571   -1.6699   17.1244 O   0  0  0  0  0  0  0  0  0  0  0  0
  -17.6928   -2.4701   17.3250 C   0  0  0  0  0  0  0  0  0  0  0  0
  -20.2934    1.3516    6.9923 O   0  0  0  0  0  0  0  0  0  0  0  0
  -19.1978    2.1511    6.5529 C   0  0  0  0  0  0  0  0  0  0  0  0
  -22.8332    2.9290   11.6372 O   0  0  0  0  0  0  0  0  0  0  0  0
  -22.0110    3.3566   12.7205 C   0  0  0  0  0  0  0  0  0  0  0  0
  -22.2822    3.2170    6.9024 O   0  0  0  0  0  0  0  0  0  0  0  0
  -23.6766    3.4082    6.6771 C   0  0  0  0  0  0  0  0  0  0  0  0
  -23.5578    4.0127    9.2100 O   0  0  0  0  0  0  0  0  0  0  0  0
  -24.8855    3.5611    9.4656 C   0  0  0  0  0  0  0  0  0  0  0  0
  1  4  1  0  0  0
  1  9  1  0  0  0
 20  5  1  0  0  0
 20 21  1  0  0  0
 22  6  1  0  0  0
 22 23  1  0  0  0
 24  7  1  0  0  0
 24 25  1  0  0  0
 26  8  1  0  0  0
 26 27  1  0  0  0
  2 10  2  0  0  0
 18 17  1  0  0  0
 18 19  1  0  0  0
  3  4  1  0  0  0
  3  5  2  0  0  0
  3 10  1  0  0  0
  4  6  2  0  0  0
  5  7  1  0  0  0
  6  8  1  0  0  0
  7  8  2  0  0  0
  9 11  2  0  0  0
  9 12  1  0  0  0
 10 11  1  0  0  0
 12 13  1  0  0  0
 12 14  2  0  0  0
 13 15  2  0  0  0
 14 16  1  0  0  0
 15 17  1  0  0  0
 16 17  2  0  0  0
M  END
> <PUBCHEM_COMPOUND_CID>
68077

> <PUBCHEM_CONFORMER_RMSD>
0.8

> <PUBCHEM_CONFORMER_DIVERSEORDER>
1
2
4
3
5

> <PUBCHEM_MMFF94_PARTIAL_CHARGES>
32
1 -0.16
10 0.08
11 0.08
12 0.08
13 0.08
14 0.05
15 0.47
16 -0.14
17 0.03
18 -0.15
19 -0.15
2 -0.36
20 -0.15
21 -0.15
22 0.08
23 0.28
24 0.28
25 0.28
26 0.28
27 0.28
28 0.15
29 0.15
3 -0.36
30 0.15
31 0.15
32 0.15
4 -0.36
5 -0.36
6 -0.57
7 -0.36
8 0.09
9 0.08

> <PUBCHEM_EFFECTIVE_ROTOR_COUNT>
6

> <PUBCHEM_PHARMACOPHORE_FEATURES>
10
1 1 acceptor
1 2 acceptor
1 3 acceptor
1 4 acceptor
1 5 acceptor
1 6 acceptor
1 7 acceptor
6 1 8 9 14 15 16 rings
6 17 18 19 20 21 22 rings
6 8 9 10 11 12 13 rings

> <PUBCHEM_HEAVY_ATOM_COUNT>
27

> <PUBCHEM_ATOM_DEF_STEREO_COUNT>
0

> <PUBCHEM_ATOM_UDEF_STEREO_COUNT>
0

> <PUBCHEM_BOND_DEF_STEREO_COUNT>
0

> <PUBCHEM_BOND_UDEF_STEREO_COUNT>
0

> <PUBCHEM_ISOTOPIC_ATOM_COUNT>
0

> <PUBCHEM_COMPONENT_COUNT>
1

> <PUBCHEM_CACTVS_TAUTO_COUNT>
1

> <PUBCHEM_CONFORMER_ID>
000109ED00000001

> <PUBCHEM_MMFF94_ENERGY>
133.7177

> <PUBCHEM_FEATURE_SELFOVERLAP>
50.813

> <PUBCHEM_SHAPE_FINGERPRINT>
10 15 18261392287199581512
10290309 65 18338800000969197959
10319926 262 18339625795180221442
10411042 1 17904484352760856803
10498660 4 18337389323107782700
10675989 125 17037808150477284381
1100329 8 18339366370037905273
11135609 187 18119800319348936373
11578080 2 16952235522629066967
11595378 159 17749658620022820704
12236239 1 17458345221671967730
12390115 104 18269849622290455201
12403259 415 18337956692724736172
12788726 201 18338795611296097536
12838862 33 18336812140165479381
13140716 1 18266186222262775705
13402501 40 18343301487815180136
14341114 176 18411424977793525492
14765038 42 18129679503900370641
14790565 3 17693382135858652529
14955137 171 18337690697253324307
15042514 8 18190749815786770835
15196674 1 18411421674272565322
16087824 20 18410008820588049527
18336668 15 18040718107885295125
18608769 82 18338801216339194706
20510252 161 18341051826378061824
21033648 29 18410844448043641968
21236236 1 18341894138084472791
21267235 1 18336555970508089003
21279426 13 18267586810729112942
22122407 14 15285366097778249086
23402539 116 18341610455642219838
23557571 272 18341899623427129244
23559900 14 18271520996398062896
283562 15 18409729543521706067
335352 9 18411135866586404965
34934 24 18409726232339485835
350125 39 18409735083602412144
3545911 37 18413110554888657816
4073 2 18260554463576395058
4214541 1 18410856551682890222
5104073 3 18116155463074676113
5171179 24 17913759780911578721
59755656 215 18339646637617369302
6327066 14 18115859703543745205
9709674 26 18341057380304194526
9981440 41 18186806837654907339

> <PUBCHEM_SHAPE_MULTIPOLES>
514.56
14.02
3.47
0.89
20.47
0.41
-0.06
3.52
0.04
-3.74
-0.33
-0.75
0.27
0.95

> <PUBCHEM_SHAPE_SELFOVERLAP>
1118.89

> <PUBCHEM_SHAPE_VOLUME>
282

> <PUBCHEM_COORDINATE_TYPE>
2
5
10

> <minimizedAffinity>
12.52191

> <CNNscore>
0.2664469481

> <CNNaffinity>
4.4546384811

> <CNN_VS>
1.1869248152

> <CNNaffinity_variance>
1.0279448032

$$$$
68077


 27 29  0  0  0  0  0  0  0  0999 V2000
  -23.2273   -2.8959   10.9923 O   0  0  0  0  0  0  0  0  0  0  0  0
  -26.2941   -0.2760   10.4185 O   0  0  0  0  0  0  0  0  0  0  0  0
  -25.3502   -2.3860    9.9278 C   0  0  0  0  0  0  0  0  0  0  0  0
  -24.2708   -3.2345   10.1686 C   0  0  0  0  0  0  0  0  0  0  0  0
  -26.3861   -2.7840    9.0796 C   0  0  0  0  0  0  0  0  0  0  0  0
  -24.2212   -4.4892    9.5611 C   0  0  0  0  0  0  0  0  0  0  0  0
  -26.3338   -4.0395    8.4729 C   0  0  0  0  0  0  0  0  0  0  0  0
  -25.2538   -4.8905    8.7130 C   0  0  0  0  0  0  0  0  0  0  0  0
  -23.2463   -1.6523   11.6053 C   0  0  0  0  0  0  0  0  0  0  0  0
  -25.3778   -1.0694   10.5829 C   0  0  0  0  0  0  0  0  0  0  0  0
  -24.2312   -0.7519   11.4578 C   0  0  0  0  0  0  0  0  0  0  0  0
  -22.0803   -1.3938   12.4740 C   0  0  0  0  0  0  0  0  0  0  0  0
  -21.5106   -2.4342   13.2121 C   0  0  0  0  0  0  0  0  0  0  0  0
  -21.5423   -0.1075   12.5621 C   0  0  0  0  0  0  0  0  0  0  0  0
  -20.4097   -2.1895   14.0332 C   0  0  0  0  0  0  0  0  0  0  0  0
  -20.4414    0.1371   13.3831 C   0  0  0  0  0  0  0  0  0  0  0  0
  -19.8750   -0.9040   14.1186 C   0  0  0  0  0  0  0  0  0  0  0  0
  -18.8013   -0.6657   14.9199 O   0  0  0  0  0  0  0  0  0  0  0  0
  -19.0351    0.0779   16.1150 C   0  0  0  0  0  0  0  0  0  0  0  0
  -27.4570   -1.9810    8.8208 O   0  0  0  0  0  0  0  0  0  0  0  0
  -27.4314   -1.2409    7.6024 C   0  0  0  0  0  0  0  0  0  0  0  0
  -23.1687   -5.3247    9.7925 O   0  0  0  0  0  0  0  0  0  0  0  0
  -22.0809   -5.2650    8.8729 C   0  0  0  0  0  0  0  0  0  0  0  0
  -27.3396   -4.4388    7.6423 O   0  0  0  0  0  0  0  0  0  0  0  0
  -27.0577   -4.4498    6.2451 C   0  0  0  0  0  0  0  0  0  0  0  0
  -25.2075   -6.1163    8.1170 O   0  0  0  0  0  0  0  0  0  0  0  0
  -26.0139   -7.1438    8.6883 C   0  0  0  0  0  0  0  0  0  0  0  0
  1  4  1  0  0  0
  1  9  1  0  0  0
 20  5  1  0  0  0
 20 21  1  0  0  0
 22  6  1  0  0  0
 22 23  1  0  0  0
 24  7  1  0  0  0
 24 25  1  0  0  0
 26  8  1  0  0  0
 26 27  1  0  0  0
  2 10  2  0  0  0
 18 17  1  0  0  0
 18 19  1  0  0  0
  3  4  1  0  0  0
  3  5  2  0  0  0
  3 10  1  0  0  0
  4  6  2  0  0  0
  5  7  1  0  0  0
  6  8  1  0  0  0
  7  8  2  0  0  0
  9 11  2  0  0  0
  9 12  1  0  0  0
 10 11  1  0  0  0
 12 13  1  0  0  0
 12 14  2  0  0  0
 13 15  2  0  0  0
 14 16  1  0  0  0
 15 17  1  0  0  0
 16 17  2  0  0  0
M  END
> <PUBCHEM_COMPOUND_CID>
68077

> <PUBCHEM_CONFORMER_RMSD>
0.8

> <PUBCHEM_CONFORMER_DIVERSEORDER>
1
2
4
3
5

> <PUBCHEM_MMFF94_PARTIAL_CHARGES>
32
1 -0.16
10 0.08
11 0.08
12 0.08
13 0.08
14 0.05
15 0.47
16 -0.14
17 0.03
18 -0.15
19 -0.15
2 -0.36
20 -0.15
21 -0.15
22 0.08
23 0.28
24 0.28
25 0.28
26 0.28
27 0.28
28 0.15
29 0.15
3 -0.36
30 0.15
31 0.15
32 0.15
4 -0.36
5 -0.36
6 -0.57
7 -0.36
8 0.09
9 0.08

> <PUBCHEM_EFFECTIVE_ROTOR_COUNT>
6

> <PUBCHEM_PHARMACOPHORE_FEATURES>
10
1 1 acceptor
1 2 acceptor
1 3 acceptor
1 4 acceptor
1 5 acceptor
1 6 acceptor
1 7 acceptor
6 1 8 9 14 15 16 rings
6 17 18 19 20 21 22 rings
6 8 9 10 11 12 13 rings

> <PUBCHEM_HEAVY_ATOM_COUNT>
27

> <PUBCHEM_ATOM_DEF_STEREO_COUNT>
0

> <PUBCHEM_ATOM_UDEF_STEREO_COUNT>
0

> <PUBCHEM_BOND_DEF_STEREO_COUNT>
0

> <PUBCHEM_BOND_UDEF_STEREO_COUNT>
0

> <PUBCHEM_ISOTOPIC_ATOM_COUNT>
0

> <PUBCHEM_COMPONENT_COUNT>
1

> <PUBCHEM_CACTVS_TAUTO_COUNT>
1

> <PUBCHEM_CONFORMER_ID>
000109ED00000001

> <PUBCHEM_MMFF94_ENERGY>
133.7177

> <PUBCHEM_FEATURE_SELFOVERLAP>
50.813

> <PUBCHEM_SHAPE_FINGERPRINT>
10 15 18261392287199581512
10290309 65 18338800000969197959
10319926 262 18339625795180221442
10411042 1 17904484352760856803
10498660 4 18337389323107782700
10675989 125 17037808150477284381
1100329 8 18339366370037905273
11135609 187 18119800319348936373
11578080 2 16952235522629066967
11595378 159 17749658620022820704
12236239 1 17458345221671967730
12390115 104 18269849622290455201
12403259 415 18337956692724736172
12788726 201 18338795611296097536
12838862 33 18336812140165479381
13140716 1 18266186222262775705
13402501 40 18343301487815180136
14341114 176 18411424977793525492
14765038 42 18129679503900370641
14790565 3 17693382135858652529
14955137 171 18337690697253324307
15042514 8 18190749815786770835
15196674 1 18411421674272565322
16087824 20 18410008820588049527
18336668 15 18040718107885295125
18608769 82 18338801216339194706
20510252 161 18341051826378061824
21033648 29 18410844448043641968
21236236 1 18341894138084472791
21267235 1 18336555970508089003
21279426 13 18267586810729112942
22122407 14 15285366097778249086
23402539 116 18341610455642219838
23557571 272 18341899623427129244
23559900 14 18271520996398062896
283562 15 18409729543521706067
335352 9 18411135866586404965
34934 24 18409726232339485835
350125 39 18409735083602412144
3545911 37 18413110554888657816
4073 2 18260554463576395058
4214541 1 18410856551682890222
5104073 3 18116155463074676113
5171179 24 17913759780911578721
59755656 215 18339646637617369302
6327066 14 18115859703543745205
9709674 26 18341057380304194526
9981440 41 18186806837654907339

> <PUBCHEM_SHAPE_MULTIPOLES>
514.56
14.02
3.47
0.89
20.47
0.41
-0.06
3.52
0.04
-3.74
-0.33
-0.75
0.27
0.95

> <PUBCHEM_SHAPE_SELFOVERLAP>
1118.89

> <PUBCHEM_SHAPE_VOLUME>
282

> <PUBCHEM_COORDINATE_TYPE>
2
5
10

> <minimizedAffinity>
-3.17153

> <CNNscore>
0.2321140468

> <CNNaffinity>
4.4213137627

> <CNN_VS>
1.0262490511

> <CNNaffinity_variance>
0.7719237208

$$$$
68077


 27 29  0  0  0  0  0  0  0  0999 V2000
  -20.7803   -3.3576   11.1270 O   0  0  0  0  0  0  0  0  0  0  0  0
  -24.3315   -1.9906   12.5825 O   0  0  0  0  0  0  0  0  0  0  0  0
  -23.1390   -3.7516   11.5527 C   0  0  0  0  0  0  0  0  0  0  0  0
  -21.8941   -4.1568   11.0741 C   0  0  0  0  0  0  0  0  0  0  0  0
  -24.2393   -4.6084   11.4735 C   0  0  0  0  0  0  0  0  0  0  0  0
  -21.7420   -5.4246   10.5125 C   0  0  0  0  0  0  0  0  0  0  0  0
  -24.0845   -5.8758   10.9109 C   0  0  0  0  0  0  0  0  0  0  0  0
  -22.8386   -6.2833   10.4313 C   0  0  0  0  0  0  0  0  0  0  0  0
  -20.9026   -2.0895   11.6744 C   0  0  0  0  0  0  0  0  0  0  0  0
  -23.2706   -2.4102   12.1416 C   0  0  0  0  0  0  0  0  0  0  0  0
  -22.0438   -1.5886   12.1735 C   0  0  0  0  0  0  0  0  0  0  0  0
  -19.6434   -1.3179   11.6877 C   0  0  0  0  0  0  0  0  0  0  0  0
  -18.6472   -1.5839   10.7451 C   0  0  0  0  0  0  0  0  0  0  0  0
  -19.4426   -0.3191   12.6437 C   0  0  0  0  0  0  0  0  0  0  0  0
  -17.4576   -0.8554   10.7585 C   0  0  0  0  0  0  0  0  0  0  0  0
  -18.2531    0.4094   12.6569 C   0  0  0  0  0  0  0  0  0  0  0  0
  -17.2607    0.1413   11.7142 C   0  0  0  0  0  0  0  0  0  0  0  0
  -16.0999    0.8515   11.7271 O   0  0  0  0  0  0  0  0  0  0  0  0
  -15.6556    1.3922   10.4836 C   0  0  0  0  0  0  0  0  0  0  0  0
  -25.4714   -4.2462   11.9308 O   0  0  0  0  0  0  0  0  0  0  0  0
  -25.9910   -4.9775   13.0390 C   0  0  0  0  0  0  0  0  0  0  0  0
  -20.5270   -5.8280   10.0428 O   0  0  0  0  0  0  0  0  0  0  0  0
  -19.6213   -6.3893   10.9899 C   0  0  0  0  0  0  0  0  0  0  0  0
  -25.1521   -6.7211   10.8279 O   0  0  0  0  0  0  0  0  0  0  0  0
  -25.9995   -6.5817    9.6903 C   0  0  0  0  0  0  0  0  0  0  0  0
  -22.6930   -7.5231    9.8819 O   0  0  0  0  0  0  0  0  0  0  0  0
  -22.8123   -7.6203    8.4647 C   0  0  0  0  0  0  0  0  0  0  0  0
  1  4  1  0  0  0
  1  9  1  0  0  0
 20  5  1  0  0  0
 20 21  1  0  0  0
 22  6  1  0  0  0
 22 23  1  0  0  0
 24  7  1  0  0  0
 24 25  1  0  0  0
 26  8  1  0  0  0
 26 27  1  0  0  0
  2 10  2  0  0  0
 18 17  1  0  0  0
 18 19  1  0  0  0
  3  4  1  0  0  0
  3  5  2  0  0  0
  3 10  1  0  0  0
  4  6  2  0  0  0
  5  7  1  0  0  0
  6  8  1  0  0  0
  7  8  2  0  0  0
  9 11  2  0  0  0
  9 12  1  0  0  0
 10 11  1  0  0  0
 12 13  1  0  0  0
 12 14  2  0  0  0
 13 15  2  0  0  0
 14 16  1  0  0  0
 15 17  1  0  0  0
 16 17  2  0  0  0
M  END
> <PUBCHEM_COMPOUND_CID>
68077

> <PUBCHEM_CONFORMER_RMSD>
0.8

> <PUBCHEM_CONFORMER_DIVERSEORDER>
1
2
4
3
5

> <PUBCHEM_MMFF94_PARTIAL_CHARGES>
32
1 -0.16
10 0.08
11 0.08
12 0.08
13 0.08
14 0.05
15 0.47
16 -0.14
17 0.03
18 -0.15
19 -0.15
2 -0.36
20 -0.15
21 -0.15
22 0.08
23 0.28
24 0.28
25 0.28
26 0.28
27 0.28
28 0.15
29 0.15
3 -0.36
30 0.15
31 0.15
32 0.15
4 -0.36
5 -0.36
6 -0.57
7 -0.36
8 0.09
9 0.08

> <PUBCHEM_EFFECTIVE_ROTOR_COUNT>
6

> <PUBCHEM_PHARMACOPHORE_FEATURES>
10
1 1 acceptor
1 2 acceptor
1 3 acceptor
1 4 acceptor
1 5 acceptor
1 6 acceptor
1 7 acceptor
6 1 8 9 14 15 16 rings
6 17 18 19 20 21 22 rings
6 8 9 10 11 12 13 rings

> <PUBCHEM_HEAVY_ATOM_COUNT>
27

> <PUBCHEM_ATOM_DEF_STEREO_COUNT>
0

> <PUBCHEM_ATOM_UDEF_STEREO_COUNT>
0

> <PUBCHEM_BOND_DEF_STEREO_COUNT>
0

> <PUBCHEM_BOND_UDEF_STEREO_COUNT>
0

> <PUBCHEM_ISOTOPIC_ATOM_COUNT>
0

> <PUBCHEM_COMPONENT_COUNT>
1

> <PUBCHEM_CACTVS_TAUTO_COUNT>
1

> <PUBCHEM_CONFORMER_ID>
000109ED00000001

> <PUBCHEM_MMFF94_ENERGY>
133.7177

> <PUBCHEM_FEATURE_SELFOVERLAP>
50.813

> <PUBCHEM_SHAPE_FINGERPRINT>
10 15 18261392287199581512
10290309 65 18338800000969197959
10319926 262 18339625795180221442
10411042 1 17904484352760856803
10498660 4 18337389323107782700
10675989 125 17037808150477284381
1100329 8 18339366370037905273
11135609 187 18119800319348936373
11578080 2 16952235522629066967
11595378 159 17749658620022820704
12236239 1 17458345221671967730
12390115 104 18269849622290455201
12403259 415 18337956692724736172
12788726 201 18338795611296097536
12838862 33 18336812140165479381
13140716 1 18266186222262775705
13402501 40 18343301487815180136
14341114 176 18411424977793525492
14765038 42 18129679503900370641
14790565 3 17693382135858652529
14955137 171 18337690697253324307
15042514 8 18190749815786770835
15196674 1 18411421674272565322
16087824 20 18410008820588049527
18336668 15 18040718107885295125
18608769 82 18338801216339194706
20510252 161 18341051826378061824
21033648 29 18410844448043641968
21236236 1 18341894138084472791
21267235 1 18336555970508089003
21279426 13 18267586810729112942
22122407 14 15285366097778249086
23402539 116 18341610455642219838
23557571 272 18341899623427129244
23559900 14 18271520996398062896
283562 15 18409729543521706067
335352 9 18411135866586404965
34934 24 18409726232339485835
350125 39 18409735083602412144
3545911 37 18413110554888657816
4073 2 18260554463576395058
4214541 1 18410856551682890222
5104073 3 18116155463074676113
5171179 24 17913759780911578721
59755656 215 18339646637617369302
6327066 14 18115859703543745205
9709674 26 18341057380304194526
9981440 41 18186806837654907339

> <PUBCHEM_SHAPE_MULTIPOLES>
514.56
14.02
3.47
0.89
20.47
0.41
-0.06
3.52
0.04
-3.74
-0.33
-0.75
0.27
0.95

> <PUBCHEM_SHAPE_SELFOVERLAP>
1118.89

> <PUBCHEM_SHAPE_VOLUME>
282

> <PUBCHEM_COORDINATE_TYPE>
2
5
10

> <minimizedAffinity>
-5.70125

> <CNNscore>
0.1919362396

> <CNNaffinity>
4.5651540756

> <CNN_VS>
0.8762184978

> <CNNaffinity_variance>
0.5737968683

$$$$
68077


 27 29  0  0  0  0  0  0  0  0999 V2000
   -8.7626  -10.6818   13.3652 O   0  0  0  0  0  0  0  0  0  0  0  0
  -12.0671  -12.8349   12.3439 O   0  0  0  0  0  0  0  0  0  0  0  0
  -10.2510  -11.5023   11.6298 C   0  0  0  0  0  0  0  0  0  0  0  0
   -9.1326  -10.7831   12.0480 C   0  0  0  0  0  0  0  0  0  0  0  0
  -10.5798  -11.5719   10.2741 C   0  0  0  0  0  0  0  0  0  0  0  0
   -8.3344  -10.1279   11.1102 C   0  0  0  0  0  0  0  0  0  0  0  0
   -9.7799  -10.9154    9.3382 C   0  0  0  0  0  0  0  0  0  0  0  0
   -8.6595  -10.1949    9.7551 C   0  0  0  0  0  0  0  0  0  0  0  0
   -9.5408  -11.3177   14.3206 C   0  0  0  0  0  0  0  0  0  0  0  0
  -11.0740  -12.1851   12.6398 C   0  0  0  0  0  0  0  0  0  0  0  0
  -10.6351  -12.0440   14.0428 C   0  0  0  0  0  0  0  0  0  0  0  0
   -9.0495  -11.1495   15.7032 C   0  0  0  0  0  0  0  0  0  0  0  0
   -7.7393  -11.5068   16.0308 C   0  0  0  0  0  0  0  0  0  0  0  0
   -9.8932  -10.6331   16.6897 C   0  0  0  0  0  0  0  0  0  0  0  0
   -7.2757  -11.3486   17.3370 C   0  0  0  0  0  0  0  0  0  0  0  0
   -9.4296  -10.4749   17.9958 C   0  0  0  0  0  0  0  0  0  0  0  0
   -8.1208  -10.8325   18.3194 C   0  0  0  0  0  0  0  0  0  0  0  0
   -7.6684  -10.6787   19.5936 O   0  0  0  0  0  0  0  0  0  0  0  0
   -8.0186  -11.6930   20.5341 C   0  0  0  0  0  0  0  0  0  0  0  0
  -11.6657  -12.2655    9.8286 O   0  0  0  0  0  0  0  0  0  0  0  0
  -12.0286  -12.0910    8.4609 C   0  0  0  0  0  0  0  0  0  0  0  0
   -7.2384   -9.4230   11.5119 O   0  0  0  0  0  0  0  0  0  0  0  0
   -7.4212   -8.4957   12.5792 C   0  0  0  0  0  0  0  0  0  0  0  0
  -10.0914  -10.9760    8.0114 O   0  0  0  0  0  0  0  0  0  0  0  0
  -10.6593  -12.1940    7.5362 C   0  0  0  0  0  0  0  0  0  0  0  0
   -7.8813   -9.5546    8.8361 O   0  0  0  0  0  0  0  0  0  0  0  0
   -8.3167   -8.2675    8.4047 C   0  0  0  0  0  0  0  0  0  0  0  0
  1  4  1  0  0  0
  1  9  1  0  0  0
 20  5  1  0  0  0
 20 21  1  0  0  0
 22  6  1  0  0  0
 22 23  1  0  0  0
 24  7  1  0  0  0
 24 25  1  0  0  0
 26  8  1  0  0  0
 26 27  1  0  0  0
  2 10  2  0  0  0
 18 17  1  0  0  0
 18 19  1  0  0  0
  3  4  1  0  0  0
  3  5  2  0  0  0
  3 10  1  0  0  0
  4  6  2  0  0  0
  5  7  1  0  0  0
  6  8  1  0  0  0
  7  8  2  0  0  0
  9 11  2  0  0  0
  9 12  1  0  0  0
 10 11  1  0  0  0
 12 13  1  0  0  0
 12 14  2  0  0  0
 13 15  2  0  0  0
 14 16  1  0  0  0
 15 17  1  0  0  0
 16 17  2  0  0  0
M  END
> <PUBCHEM_COMPOUND_CID>
68077

> <PUBCHEM_CONFORMER_RMSD>
0.8

> <PUBCHEM_CONFORMER_DIVERSEORDER>
1
2
4
3
5

> <PUBCHEM_MMFF94_PARTIAL_CHARGES>
32
1 -0.16
10 0.08
11 0.08
12 0.08
13 0.08
14 0.05
15 0.47
16 -0.14
17 0.03
18 -0.15
19 -0.15
2 -0.36
20 -0.15
21 -0.15
22 0.08
23 0.28
24 0.28
25 0.28
26 0.28
27 0.28
28 0.15
29 0.15
3 -0.36
30 0.15
31 0.15
32 0.15
4 -0.36
5 -0.36
6 -0.57
7 -0.36
8 0.09
9 0.08

> <PUBCHEM_EFFECTIVE_ROTOR_COUNT>
6

> <PUBCHEM_PHARMACOPHORE_FEATURES>
10
1 1 acceptor
1 2 acceptor
1 3 acceptor
1 4 acceptor
1 5 acceptor
1 6 acceptor
1 7 acceptor
6 1 8 9 14 15 16 rings
6 17 18 19 20 21 22 rings
6 8 9 10 11 12 13 rings

> <PUBCHEM_HEAVY_ATOM_COUNT>
27

> <PUBCHEM_ATOM_DEF_STEREO_COUNT>
0

> <PUBCHEM_ATOM_UDEF_STEREO_COUNT>
0

> <PUBCHEM_BOND_DEF_STEREO_COUNT>
0

> <PUBCHEM_BOND_UDEF_STEREO_COUNT>
0

> <PUBCHEM_ISOTOPIC_ATOM_COUNT>
0

> <PUBCHEM_COMPONENT_COUNT>
1

> <PUBCHEM_CACTVS_TAUTO_COUNT>
1

> <PUBCHEM_CONFORMER_ID>
000109ED00000001

> <PUBCHEM_MMFF94_ENERGY>
133.7177

> <PUBCHEM_FEATURE_SELFOVERLAP>
50.813

> <PUBCHEM_SHAPE_FINGERPRINT>
10 15 18261392287199581512
10290309 65 18338800000969197959
10319926 262 18339625795180221442
10411042 1 17904484352760856803
10498660 4 18337389323107782700
10675989 125 17037808150477284381
1100329 8 18339366370037905273
11135609 187 18119800319348936373
11578080 2 16952235522629066967
11595378 159 17749658620022820704
12236239 1 17458345221671967730
12390115 104 18269849622290455201
12403259 415 18337956692724736172
12788726 201 18338795611296097536
12838862 33 18336812140165479381
13140716 1 18266186222262775705
13402501 40 18343301487815180136
14341114 176 18411424977793525492
14765038 42 18129679503900370641
14790565 3 17693382135858652529
14955137 171 18337690697253324307
15042514 8 18190749815786770835
15196674 1 18411421674272565322
16087824 20 18410008820588049527
18336668 15 18040718107885295125
18608769 82 18338801216339194706
20510252 161 18341051826378061824
21033648 29 18410844448043641968
21236236 1 18341894138084472791
21267235 1 18336555970508089003
21279426 13 18267586810729112942
22122407 14 15285366097778249086
23402539 116 18341610455642219838
23557571 272 18341899623427129244
23559900 14 18271520996398062896
283562 15 18409729543521706067
335352 9 18411135866586404965
34934 24 18409726232339485835
350125 39 18409735083602412144
3545911 37 18413110554888657816
4073 2 18260554463576395058
4214541 1 18410856551682890222
5104073 3 18116155463074676113
5171179 24 17913759780911578721
59755656 215 18339646637617369302
6327066 14 18115859703543745205
9709674 26 18341057380304194526
9981440 41 18186806837654907339

> <PUBCHEM_SHAPE_MULTIPOLES>
514.56
14.02
3.47
0.89
20.47
0.41
-0.06
3.52
0.04
-3.74
-0.33
-0.75
0.27
0.95

> <PUBCHEM_SHAPE_SELFOVERLAP>
1118.89

> <PUBCHEM_SHAPE_VOLUME>
282

> <PUBCHEM_COORDINATE_TYPE>
2
5
10

> <minimizedAffinity>
122.87399

> <CNNscore>
0.1909171343

> <CNNaffinity>
4.2193837166

> <CNN_VS>
0.8055526614

> <CNNaffinity_variance>
2.6618752480

$$$$
68077


 27 29  0  0  0  0  0  0  0  0999 V2000
  -16.0639   -5.7715   14.5209 O   0  0  0  0  0  0  0  0  0  0  0  0
  -18.0187   -7.7807   11.5646 O   0  0  0  0  0  0  0  0  0  0  0  0
  -17.6738   -7.4744   13.8821 C   0  0  0  0  0  0  0  0  0  0  0  0
  -16.9715   -6.7486   14.8428 C   0  0  0  0  0  0  0  0  0  0  0  0
  -18.5872   -8.4581   14.2681 C   0  0  0  0  0  0  0  0  0  0  0  0
  -17.1794   -7.0028   16.1985 C   0  0  0  0  0  0  0  0  0  0  0  0
  -18.7931   -8.7106   15.6249 C   0  0  0  0  0  0  0  0  0  0  0  0
  -18.0908   -7.9846   16.5882 C   0  0  0  0  0  0  0  0  0  0  0  0
  -15.8318   -5.5010   13.1808 C   0  0  0  0  0  0  0  0  0  0  0  0
  -17.4364   -7.1845   12.4598 C   0  0  0  0  0  0  0  0  0  0  0  0
  -16.4494   -6.1260   12.1657 C   0  0  0  0  0  0  0  0  0  0  0  0
  -14.8432   -4.4290   12.9476 C   0  0  0  0  0  0  0  0  0  0  0  0
  -13.4763   -4.7154   12.9811 C   0  0  0  0  0  0  0  0  0  0  0  0
  -15.2707   -3.1235   12.6933 C   0  0  0  0  0  0  0  0  0  0  0  0
  -12.5427   -3.7023   12.7616 C   0  0  0  0  0  0  0  0  0  0  0  0
  -14.3371   -2.1106   12.4738 C   0  0  0  0  0  0  0  0  0  0  0  0
  -12.9731   -2.4000   12.5078 C   0  0  0  0  0  0  0  0  0  0  0  0
  -12.0620   -1.4120   12.2940 O   0  0  0  0  0  0  0  0  0  0  0  0
  -10.9798   -1.3153   13.2190 C   0  0  0  0  0  0  0  0  0  0  0  0
  -19.2917   -9.1876   13.3569 O   0  0  0  0  0  0  0  0  0  0  0  0
  -20.3955   -9.9446   13.8481 C   0  0  0  0  0  0  0  0  0  0  0  0
  -16.4964   -6.2962   17.1438 O   0  0  0  0  0  0  0  0  0  0  0  0
  -16.8561   -4.9272   17.3136 C   0  0  0  0  0  0  0  0  0  0  0  0
  -19.6825   -9.6691   16.0138 O   0  0  0  0  0  0  0  0  0  0  0  0
  -20.5767  -10.1623   15.0194 C   0  0  0  0  0  0  0  0  0  0  0  0
  -18.2955   -8.2358   17.9130 O   0  0  0  0  0  0  0  0  0  0  0  0
  -19.4371   -7.6321   18.5167 C   0  0  0  0  0  0  0  0  0  0  0  0
  1  4  1  0  0  0
  1  9  1  0  0  0
 20  5  1  0  0  0
 20 21  1  0  0  0
 22  6  1  0  0  0
 22 23  1  0  0  0
 24  7  1  0  0  0
 24 25  1  0  0  0
 26  8  1  0  0  0
 26 27  1  0  0  0
  2 10  2  0  0  0
 18 17  1  0  0  0
 18 19  1  0  0  0
  3  4  1  0  0  0
  3  5  2  0  0  0
  3 10  1  0  0  0
  4  6  2  0  0  0
  5  7  1  0  0  0
  6  8  1  0  0  0
  7  8  2  0  0  0
  9 11  2  0  0  0
  9 12  1  0  0  0
 10 11  1  0  0  0
 12 13  1  0  0  0
 12 14  2  0  0  0
 13 15  2  0  0  0
 14 16  1  0  0  0
 15 17  1  0  0  0
 16 17  2  0  0  0
M  END
> <PUBCHEM_COMPOUND_CID>
68077

> <PUBCHEM_CONFORMER_RMSD>
0.8

> <PUBCHEM_CONFORMER_DIVERSEORDER>
1
2
4
3
5

> <PUBCHEM_MMFF94_PARTIAL_CHARGES>
32
1 -0.16
10 0.08
11 0.08
12 0.08
13 0.08
14 0.05
15 0.47
16 -0.14
17 0.03
18 -0.15
19 -0.15
2 -0.36
20 -0.15
21 -0.15
22 0.08
23 0.28
24 0.28
25 0.28
26 0.28
27 0.28
28 0.15
29 0.15
3 -0.36
30 0.15
31 0.15
32 0.15
4 -0.36
5 -0.36
6 -0.57
7 -0.36
8 0.09
9 0.08

> <PUBCHEM_EFFECTIVE_ROTOR_COUNT>
6

> <PUBCHEM_PHARMACOPHORE_FEATURES>
10
1 1 acceptor
1 2 acceptor
1 3 acceptor
1 4 acceptor
1 5 acceptor
1 6 acceptor
1 7 acceptor
6 1 8 9 14 15 16 rings
6 17 18 19 20 21 22 rings
6 8 9 10 11 12 13 rings

> <PUBCHEM_HEAVY_ATOM_COUNT>
27

> <PUBCHEM_ATOM_DEF_STEREO_COUNT>
0

> <PUBCHEM_ATOM_UDEF_STEREO_COUNT>
0

> <PUBCHEM_BOND_DEF_STEREO_COUNT>
0

> <PUBCHEM_BOND_UDEF_STEREO_COUNT>
0

> <PUBCHEM_ISOTOPIC_ATOM_COUNT>
0

> <PUBCHEM_COMPONENT_COUNT>
1

> <PUBCHEM_CACTVS_TAUTO_COUNT>
1

> <PUBCHEM_CONFORMER_ID>
000109ED00000001

> <PUBCHEM_MMFF94_ENERGY>
133.7177

> <PUBCHEM_FEATURE_SELFOVERLAP>
50.813

> <PUBCHEM_SHAPE_FINGERPRINT>
10 15 18261392287199581512
10290309 65 18338800000969197959
10319926 262 18339625795180221442
10411042 1 17904484352760856803
10498660 4 18337389323107782700
10675989 125 17037808150477284381
1100329 8 18339366370037905273
11135609 187 18119800319348936373
11578080 2 16952235522629066967
11595378 159 17749658620022820704
12236239 1 17458345221671967730
12390115 104 18269849622290455201
12403259 415 18337956692724736172
12788726 201 18338795611296097536
12838862 33 18336812140165479381
13140716 1 18266186222262775705
13402501 40 18343301487815180136
14341114 176 18411424977793525492
14765038 42 18129679503900370641
14790565 3 17693382135858652529
14955137 171 18337690697253324307
15042514 8 18190749815786770835
15196674 1 18411421674272565322
16087824 20 18410008820588049527
18336668 15 18040718107885295125
18608769 82 18338801216339194706
20510252 161 18341051826378061824
21033648 29 18410844448043641968
21236236 1 18341894138084472791
21267235 1 18336555970508089003
21279426 13 18267586810729112942
22122407 14 15285366097778249086
23402539 116 18341610455642219838
23557571 272 18341899623427129244
23559900 14 18271520996398062896
283562 15 18409729543521706067
335352 9 18411135866586404965
34934 24 18409726232339485835
350125 39 18409735083602412144
3545911 37 18413110554888657816
4073 2 18260554463576395058
4214541 1 18410856551682890222
5104073 3 18116155463074676113
5171179 24 17913759780911578721
59755656 215 18339646637617369302
6327066 14 18115859703543745205
9709674 26 18341057380304194526
9981440 41 18186806837654907339

> <PUBCHEM_SHAPE_MULTIPOLES>
514.56
14.02
3.47
0.89
20.47
0.41
-0.06
3.52
0.04
-3.74
-0.33
-0.75
0.27
0.95

> <PUBCHEM_SHAPE_SELFOVERLAP>
1118.89

> <PUBCHEM_SHAPE_VOLUME>
282

> <PUBCHEM_COORDINATE_TYPE>
2
5
10

> <minimizedAffinity>
243.92671

> <CNNscore>
0.1862933934

> <CNNaffinity>
3.1871972084

> <CNN_VS>
0.5937537551

> <CNNaffinity_variance>
2.0811388493

$$$$
